<?xml version="1.0" encoding="UTF-8"?>

<!-- generated on Sun Aug 30 16:14:10 2015 by SUMO netconvert Version 0.23.0
<?xml version="1.0" encoding="UTF-8"?>

<configuration xmlns:xsi="http://www.w3.org/2001/XMLSchema-instance" xsi:noNamespaceSchemaLocation="http://sumo.dlr.de/xsd/netconvertConfiguration.xsd">

    <input>
        <node-files value="cross.nod.xml"/>
        <edge-files value="cross.edg.xml"/>
        <connection-files value="cross.con.xml"/>
    </input>

    <output>
        <output-file value="gen/cross.net.xml"/>
    </output>

    <report>
        <verbose value="true"/>
    </report>

</configuration>
-->

<net version="0.13" xmlns:xsi="http://www.w3.org/2001/XMLSchema-instance" xsi:noNamespaceSchemaLocation="http://sumo.dlr.de/xsd/net_file.xsd">

    <location netOffset="100.00,100.00" convBoundary="0.00,0.00,200.00,100.00" origBoundary="-100.00,-100.00,100.00,0.00" projParameter="!"/>

    <edge id=":0_0" function="internal">
        <lane id=":0_0_0" index="0" speed="13.90" length="13.35" shape="108.05,108.25 104.19,107.73 101.65,106.60 99.11,105.47 95.25,104.95"/>
        <lane id=":0_0_1" index="1" speed="13.90" length="13.35" shape="108.05,104.95 104.19,104.43 101.65,103.30 99.11,102.17 95.25,101.65"/>
    </edge>
    <edge id=":0_2" function="internal">
        <lane id=":0_2_0" index="0" speed="13.90" length="5.74" shape="108.05,101.65 103.81,100.84 102.70,99.95"/>
    </edge>
    <edge id=":0_8" function="internal">
        <lane id=":0_8_0" index="0" speed="13.90" length="12.64" shape="102.70,99.95 100.78,98.40 98.96,94.34 98.35,88.65"/>
    </edge>
    <edge id=":0_3" function="internal">
        <lane id=":0_3_0" index="0" speed="13.90" length="18.62" shape="104.95,88.65 104.34,95.78 102.53,100.87 99.49,103.93 95.25,104.95"/>
        <lane id=":0_3_1" index="1" speed="13.90" length="18.62" shape="101.65,88.65 101.25,94.34 100.05,98.40 98.05,100.84 95.25,101.65"/>
    </edge>
    <edge id=":0_5" function="internal">
        <lane id=":0_5_0" index="0" speed="13.90" length="12.80" shape="95.25,91.75 99.05,91.75 101.65,91.75 104.25,91.75 108.05,91.75"/>
        <lane id=":0_5_1" index="1" speed="13.90" length="12.80" shape="95.25,95.05 99.05,95.05 101.65,95.05 104.25,95.05 108.05,95.05"/>
        <lane id=":0_5_2" index="2" speed="13.90" length="12.80" shape="95.25,98.35 99.05,98.35 101.65,98.35 104.25,98.35 108.05,98.35"/>
    </edge>
    <edge id=":1_0" function="internal">
        <lane id=":1_0_0" index="0" speed="13.90" length="4.82" shape="0.00,101.65 -1.24,100.82 -1.65,100.00 -1.24,99.17 0.00,98.35"/>
    </edge>
    <edge id=":2_0" function="internal">
        <lane id=":2_0_0" index="0" speed="13.90" length="4.82" shape="200.00,98.35 201.24,99.18 201.65,100.00 201.24,100.83 200.00,101.65"/>
    </edge>
    <edge id=":3_0" function="internal">
        <lane id=":3_0_0" index="0" speed="13.90" length="4.82" shape="98.35,0.00 99.18,-1.24 100.00,-1.65 100.83,-1.24 101.65,0.00"/>
    </edge>

    <edge id="1i" from="1" to="0" priority="-1">
        <lane id="1i_0" index="0" speed="13.90" length="95.25" shape="0.00,91.75 95.25,91.75"/>
        <lane id="1i_1" index="1" speed="13.90" length="95.25" shape="0.00,95.05 95.25,95.05"/>
        <lane id="1i_2" index="2" speed="13.90" length="95.25" shape="0.00,98.35 95.25,98.35"/>
    </edge>
    <edge id="1o" from="0" to="1" priority="-1">
        <lane id="1o_0" index="0" speed="13.90" length="95.25" shape="95.25,104.95 0.00,104.95"/>
        <lane id="1o_1" index="1" speed="13.90" length="95.25" shape="95.25,101.65 0.00,101.65"/>
    </edge>
    <edge id="2i" from="2" to="0" priority="-1">
        <lane id="2i_0" index="0" speed="13.90" length="91.95" shape="200.00,108.25 108.05,108.25"/>
        <lane id="2i_1" index="1" speed="13.90" length="91.95" shape="200.00,104.95 108.05,104.95"/>
        <lane id="2i_2" index="2" speed="13.90" length="91.95" shape="200.00,101.65 108.05,101.65"/>
    </edge>
    <edge id="2o" from="0" to="2" priority="-1">
        <lane id="2o_0" index="0" speed="13.90" length="91.95" shape="108.05,91.75 200.00,91.75"/>
        <lane id="2o_1" index="1" speed="13.90" length="91.95" shape="108.05,95.05 200.00,95.05"/>
        <lane id="2o_2" index="2" speed="13.90" length="91.95" shape="108.05,98.35 200.00,98.35"/>
    </edge>
    <edge id="3i" from="3" to="0" priority="-1">
        <lane id="3i_0" index="0" speed="13.90" length="88.65" shape="104.95,0.00 104.95,88.65"/>
        <lane id="3i_1" index="1" speed="13.90" length="88.65" shape="101.65,0.00 101.65,88.65"/>
    </edge>
    <edge id="3o" from="0" to="3" priority="-1">
        <lane id="3o_0" index="0" speed="13.90" length="88.65" shape="98.35,88.65 98.35,0.00"/>
    </edge>

    <tlLogic id="0" type="static" programID="0" offset="0">
        <phase duration="31" state="GGgrrGGG"/>
        <phase duration="4" state="yygrryyy"/>
        <phase duration="6" state="rrGrrrrr"/>
        <phase duration="4" state="rryrrrrr"/>
        <phase duration="31" state="rrrGGrrr"/>
        <phase duration="4" state="rrryyrrr"/>
    </tlLogic>

    <junction id="0" type="traffic_light" x="100.00" y="100.00" incLanes="2i_0 2i_1 2i_2 3i_0 3i_1 1i_0 1i_1 1i_2" intLanes=":0_0_0 :0_0_1 :0_8_0 :0_3_0 :0_3_1 :0_5_0 :0_5_1 :0_5_2" shape="108.05,109.85 108.05,90.15 106.55,88.65 96.75,88.65 95.25,90.15 95.25,106.55">
        <request index="0" response="00000000" foes="00011000" cont="0"/>
        <request index="1" response="00000000" foes="00011000" cont="0"/>
        <request index="2" response="11100000" foes="11111000" cont="1"/>
        <request index="3" response="11100111" foes="11100111" cont="0"/>
        <request index="4" response="11100111" foes="11100111" cont="0"/>
        <request index="5" response="00000000" foes="00011100" cont="0"/>
        <request index="6" response="00000000" foes="00011100" cont="0"/>
        <request index="7" response="00000000" foes="00011100" cont="0"/>
    </junction>
    <junction id="1" type="priority" x="0.00" y="100.00" incLanes="1o_0 1o_1" intLanes=":1_0_0" shape="-0.00,99.95 -0.00,90.15 0.00,106.55 0.00,100.05">
        <request index="0" response="0" foes="0" cont="0"/>
    </junction>
    <junction id="2" type="priority" x="200.00" y="100.00" incLanes="2o_0 2o_1 2o_2" intLanes=":2_0_0" shape="200.00,100.05 200.00,109.85 200.00,90.15 200.00,99.95">
        <request index="0" response="0" foes="0" cont="0"/>
    </junction>
    <junction id="3" type="priority" x="100.00" y="0.00" incLanes="3o_0" intLanes=":3_0_0" shape="100.05,-0.00 106.55,-0.00 96.75,0.00 99.95,0.00">
        <request index="0" response="0" foes="0" cont="0"/>
    </junction>

    <junction id=":0_8_0" type="internal" x="102.70" y="99.95" incLanes=":0_2_0 1i_0 1i_1 1i_2" intLanes=":0_3_0 :0_3_1 :0_5_0 :0_5_1 :0_5_2"/>

    <connection from="1i" to="2o" fromLane="0" toLane="0" via=":0_5_0" tl="0" linkIndex="5" dir="s" state="o"/>
    <connection from="1i" to="2o" fromLane="1" toLane="1" via=":0_5_1" tl="0" linkIndex="6" dir="s" state="o"/>
    <connection from="1i" to="2o" fromLane="2" toLane="2" via=":0_5_2" tl="0" linkIndex="7" dir="s" state="o"/>
    <connection from="1o" to="1i" fromLane="1" toLane="2" via=":1_0_0" dir="t" state="M"/>
    <connection from="2i" to="1o" fromLane="0" toLane="0" via=":0_0_0" tl="0" linkIndex="0" dir="s" state="o"/>
    <connection from="2i" to="1o" fromLane="1" toLane="1" via=":0_0_1" tl="0" linkIndex="1" dir="s" state="o"/>
    <connection from="2i" to="3o" fromLane="2" toLane="0" via=":0_2_0" tl="0" linkIndex="2" dir="l" state="o"/>
    <connection from="2o" to="2i" fromLane="2" toLane="2" via=":2_0_0" dir="t" state="M"/>
    <connection from="3i" to="1o" fromLane="0" toLane="0" via=":0_3_0" tl="0" linkIndex="3" dir="l" state="o"/>
    <connection from="3i" to="1o" fromLane="1" toLane="1" via=":0_3_1" tl="0" linkIndex="4" dir="l" state="o"/>
    <connection from="3o" to="3i" fromLane="0" toLane="1" via=":3_0_0" dir="t" state="M"/>

    <connection from=":0_0" to="1o" fromLane="0" toLane="0" dir="s" state="M"/>
    <connection from=":0_0" to="1o" fromLane="1" toLane="1" dir="s" state="M"/>
    <connection from=":0_2" to="3o" fromLane="0" toLane="0" via=":0_8_0" dir="s" state="m"/>
    <connection from=":0_8" to="3o" fromLane="0" toLane="0" dir="s" state="M"/>
    <connection from=":0_3" to="1o" fromLane="0" toLane="0" dir="s" state="M"/>
    <connection from=":0_3" to="1o" fromLane="1" toLane="1" dir="s" state="M"/>
    <connection from=":0_5" to="2o" fromLane="0" toLane="0" dir="s" state="M"/>
    <connection from=":0_5" to="2o" fromLane="1" toLane="1" dir="s" state="M"/>
    <connection from=":0_5" to="2o" fromLane="2" toLane="2" dir="s" state="M"/>
    <connection from=":1_0" to="1i" fromLane="0" toLane="2" dir="s" state="M"/>
    <connection from=":2_0" to="2i" fromLane="0" toLane="2" dir="s" state="M"/>
    <connection from=":3_0" to="3i" fromLane="0" toLane="1" dir="s" state="M"/>

</net>
