<?xml version="1.0" encoding="UTF-8"?>

<!-- generated on Tue Aug 18 20:36:42 2015 by SUMO netconvert Version 0.23.0
<?xml version="1.0" encoding="UTF-8"?>

<configuration xmlns:xsi="http://www.w3.org/2001/XMLSchema-instance" xsi:noNamespaceSchemaLocation="http://sumo.dlr.de/xsd/netconvertConfiguration.xsd">

    <input>
        <node-files value="cross.nod.xml"/>
        <edge-files value="cross.edg.xml"/>
        <connection-files value="cross.con.xml"/>
    </input>

    <output>
        <output-file value="gen/cross.net.xml"/>
    </output>

    <report>
        <verbose value="true"/>
    </report>

</configuration>
-->

<net version="0.13" xmlns:xsi="http://www.w3.org/2001/XMLSchema-instance" xsi:noNamespaceSchemaLocation="http://sumo.dlr.de/xsd/net_file.xsd">

    <location netOffset="100.00,100.00" convBoundary="0.00,0.00,200.00,200.00" origBoundary="-100.00,-100.00,100.00,100.00" projParameter="!"/>

    <edge id=":0_0" function="internal">
        <lane id=":0_0_0" index="0" speed="13.90" length="16.51" shape="95.05,108.05 95.57,102.77 96.70,98.79 97.83,95.42 98.35,91.95"/>
    </edge>
    <edge id=":0_1" function="internal">
        <lane id=":0_1_0" index="0" speed="13.90" length="9.21" shape="98.35,108.05 98.96,103.81 100.77,100.78 101.96,100.06"/>
    </edge>
    <edge id=":0_8" function="internal">
        <lane id=":0_8_0" index="0" speed="13.90" length="6.44" shape="101.96,100.06 103.81,98.96 108.05,98.35"/>
    </edge>
    <edge id=":0_2" function="internal">
        <lane id=":0_2_0" index="0" speed="13.90" length="16.51" shape="108.05,104.95 102.77,104.43 98.79,103.30 95.42,102.17 91.95,101.65"/>
    </edge>
    <edge id=":0_3" function="internal">
        <lane id=":0_3_0" index="0" speed="13.90" length="9.21" shape="108.05,101.65 103.81,101.04 100.78,99.23 100.06,98.04"/>
    </edge>
    <edge id=":0_9" function="internal">
        <lane id=":0_9_0" index="0" speed="13.90" length="6.44" shape="100.06,98.04 98.96,96.19 98.35,91.95"/>
    </edge>
    <edge id=":0_4" function="internal">
        <lane id=":0_4_0" index="0" speed="13.90" length="16.51" shape="104.95,91.95 104.43,97.23 103.30,101.21 102.17,104.58 101.65,108.05"/>
    </edge>
    <edge id=":0_5" function="internal">
        <lane id=":0_5_0" index="0" speed="13.90" length="9.21" shape="101.65,91.95 101.04,96.19 99.23,99.22 98.04,99.94"/>
    </edge>
    <edge id=":0_10" function="internal">
        <lane id=":0_10_0" index="0" speed="13.90" length="6.44" shape="98.04,99.94 96.19,101.04 91.95,101.65"/>
    </edge>
    <edge id=":0_6" function="internal">
        <lane id=":0_6_0" index="0" speed="13.90" length="16.51" shape="91.95,95.05 97.23,95.57 101.21,96.70 104.58,97.83 108.05,98.35"/>
    </edge>
    <edge id=":0_7" function="internal">
        <lane id=":0_7_0" index="0" speed="13.90" length="9.21" shape="91.95,98.35 96.19,98.96 99.22,100.77 99.94,101.96"/>
    </edge>
    <edge id=":0_11" function="internal">
        <lane id=":0_11_0" index="0" speed="13.90" length="6.44" shape="99.94,101.96 101.04,103.81 101.65,108.05"/>
    </edge>
    <edge id=":1_0" function="internal">
        <lane id=":1_0_0" index="0" speed="13.90" length="4.82" shape="0.00,101.65 -1.24,100.82 -1.65,100.00 -1.24,99.17 0.00,98.35"/>
    </edge>
    <edge id=":2_0" function="internal">
        <lane id=":2_0_0" index="0" speed="13.90" length="4.82" shape="200.00,98.35 201.24,99.18 201.65,100.00 201.24,100.83 200.00,101.65"/>
    </edge>
    <edge id=":3_0" function="internal">
        <lane id=":3_0_0" index="0" speed="13.90" length="4.82" shape="98.35,0.00 99.18,-1.24 100.00,-1.65 100.83,-1.24 101.65,0.00"/>
    </edge>
    <edge id=":4_0" function="internal">
        <lane id=":4_0_0" index="0" speed="13.90" length="4.82" shape="101.65,200.00 100.82,201.24 100.00,201.65 99.17,201.24 98.35,200.00"/>
    </edge>

    <edge id="1i" from="1" to="0" priority="-1">
        <lane id="1i_0" index="0" speed="13.90" length="91.95" shape="0.00,95.05 91.95,95.05"/>
        <lane id="1i_1" index="1" speed="13.90" length="91.95" shape="0.00,98.35 91.95,98.35"/>
    </edge>
    <edge id="1o" from="0" to="1" priority="-1">
        <lane id="1o_0" index="0" speed="13.90" length="91.95" shape="91.95,101.65 0.00,101.65"/>
    </edge>
    <edge id="2i" from="2" to="0" priority="-1">
        <lane id="2i_0" index="0" speed="13.90" length="91.95" shape="200.00,104.95 108.05,104.95"/>
        <lane id="2i_1" index="1" speed="13.90" length="91.95" shape="200.00,101.65 108.05,101.65"/>
    </edge>
    <edge id="2o" from="0" to="2" priority="-1">
        <lane id="2o_0" index="0" speed="13.90" length="91.95" shape="108.05,98.35 200.00,98.35"/>
    </edge>
    <edge id="3i" from="3" to="0" priority="-1">
        <lane id="3i_0" index="0" speed="13.90" length="91.95" shape="104.95,0.00 104.95,91.95"/>
        <lane id="3i_1" index="1" speed="13.90" length="91.95" shape="101.65,0.00 101.65,91.95"/>
    </edge>
    <edge id="3o" from="0" to="3" priority="-1">
        <lane id="3o_0" index="0" speed="13.90" length="91.95" shape="98.35,91.95 98.35,0.00"/>
    </edge>
    <edge id="4i" from="4" to="0" priority="-1">
        <lane id="4i_0" index="0" speed="13.90" length="91.95" shape="95.05,200.00 95.05,108.05"/>
        <lane id="4i_1" index="1" speed="13.90" length="91.95" shape="98.35,200.00 98.35,108.05"/>
    </edge>
    <edge id="4o" from="0" to="4" priority="-1">
        <lane id="4o_0" index="0" speed="13.90" length="91.95" shape="101.65,108.05 101.65,200.00"/>
    </edge>

    <tlLogic id="0" type="static" programID="0" offset="0">
        <phase duration="31" state="GgrrGgrr"/>
        <phase duration="4" state="ygrrygrr"/>
        <phase duration="6" state="rGrrrGrr"/>
        <phase duration="4" state="ryrrryrr"/>
        <phase duration="31" state="rrGgrrGg"/>
        <phase duration="4" state="rrygrryg"/>
        <phase duration="6" state="rrrGrrrG"/>
        <phase duration="4" state="rrryrrry"/>
    </tlLogic>

    <junction id="0" type="traffic_light" x="100.00" y="100.00" incLanes="4i_0 4i_1 2i_0 2i_1 3i_0 3i_1 1i_0 1i_1" intLanes=":0_0_0 :0_8_0 :0_2_0 :0_9_0 :0_4_0 :0_10_0 :0_6_0 :0_11_0" shape="93.45,108.05 103.25,108.05 108.05,106.55 108.05,96.75 106.55,91.95 96.75,91.95 91.95,93.45 91.95,103.25">
        <request index="0" response="00000000" foes="11101100" cont="0"/>
        <request index="1" response="00010000" foes="11011100" cont="1"/>
        <request index="2" response="00110011" foes="10110011" cont="0"/>
        <request index="3" response="01110011" foes="01110011" cont="1"/>
        <request index="4" response="00000000" foes="11001110" cont="0"/>
        <request index="5" response="00000001" foes="11001101" cont="1"/>
        <request index="6" response="00110011" foes="00111011" cont="0"/>
        <request index="7" response="00110111" foes="00110111" cont="1"/>
    </junction>
    <junction id="1" type="priority" x="0.00" y="100.00" incLanes="1o_0" intLanes=":1_0_0" shape="-0.00,99.95 -0.00,93.45 0.00,103.25 0.00,100.05">
        <request index="0" response="0" foes="0" cont="0"/>
    </junction>
    <junction id="2" type="priority" x="200.00" y="100.00" incLanes="2o_0" intLanes=":2_0_0" shape="200.00,100.05 200.00,106.55 200.00,96.75 200.00,99.95">
        <request index="0" response="0" foes="0" cont="0"/>
    </junction>
    <junction id="3" type="priority" x="100.00" y="0.00" incLanes="3o_0" intLanes=":3_0_0" shape="100.05,-0.00 106.55,-0.00 96.75,0.00 99.95,0.00">
        <request index="0" response="0" foes="0" cont="0"/>
    </junction>
    <junction id="4" type="priority" x="100.00" y="200.00" incLanes="4o_0" intLanes=":4_0_0" shape="99.95,200.00 93.45,200.00 103.25,200.00 100.05,200.00">
        <request index="0" response="0" foes="0" cont="0"/>
    </junction>

    <junction id=":0_8_0" type="internal" x="101.96" y="100.06" incLanes=":0_1_0 3i_0" intLanes=":0_2_0 :0_3_0 :0_4_0 :0_6_0 :0_7_0"/>
    <junction id=":0_9_0" type="internal" x="100.06" y="98.04" incLanes=":0_3_0 1i_0" intLanes=":0_0_0 :0_1_0 :0_4_0 :0_5_0 :0_6_0"/>
    <junction id=":0_10_0" type="internal" x="98.04" y="99.94" incLanes=":0_5_0 4i_0" intLanes=":0_0_0 :0_2_0 :0_3_0 :0_6_0 :0_7_0"/>
    <junction id=":0_11_0" type="internal" x="99.94" y="101.96" incLanes=":0_7_0 2i_0" intLanes=":0_0_0 :0_1_0 :0_2_0 :0_4_0 :0_5_0"/>

    <connection from="1i" to="2o" fromLane="0" toLane="0" via=":0_6_0" tl="0" linkIndex="6" dir="s" state="o"/>
    <connection from="1i" to="4o" fromLane="1" toLane="0" via=":0_7_0" tl="0" linkIndex="7" dir="l" state="o"/>
    <connection from="1o" to="1i" fromLane="0" toLane="1" via=":1_0_0" dir="t" state="M"/>
    <connection from="2i" to="1o" fromLane="0" toLane="0" via=":0_2_0" tl="0" linkIndex="2" dir="s" state="o"/>
    <connection from="2i" to="3o" fromLane="1" toLane="0" via=":0_3_0" tl="0" linkIndex="3" dir="l" state="o"/>
    <connection from="2o" to="2i" fromLane="0" toLane="1" via=":2_0_0" dir="t" state="M"/>
    <connection from="3i" to="4o" fromLane="0" toLane="0" via=":0_4_0" tl="0" linkIndex="4" dir="s" state="o"/>
    <connection from="3i" to="1o" fromLane="1" toLane="0" via=":0_5_0" tl="0" linkIndex="5" dir="l" state="o"/>
    <connection from="3o" to="3i" fromLane="0" toLane="1" via=":3_0_0" dir="t" state="M"/>
    <connection from="4i" to="3o" fromLane="0" toLane="0" via=":0_0_0" tl="0" linkIndex="0" dir="s" state="o"/>
    <connection from="4i" to="2o" fromLane="1" toLane="0" via=":0_1_0" tl="0" linkIndex="1" dir="l" state="o"/>
    <connection from="4o" to="4i" fromLane="0" toLane="1" via=":4_0_0" dir="t" state="M"/>

    <connection from=":0_0" to="3o" fromLane="0" toLane="0" dir="s" state="M"/>
    <connection from=":0_1" to="2o" fromLane="0" toLane="0" via=":0_8_0" dir="s" state="m"/>
    <connection from=":0_8" to="2o" fromLane="0" toLane="0" dir="s" state="M"/>
    <connection from=":0_2" to="1o" fromLane="0" toLane="0" dir="s" state="M"/>
    <connection from=":0_3" to="3o" fromLane="0" toLane="0" via=":0_9_0" dir="s" state="m"/>
    <connection from=":0_9" to="3o" fromLane="0" toLane="0" dir="s" state="M"/>
    <connection from=":0_4" to="4o" fromLane="0" toLane="0" dir="s" state="M"/>
    <connection from=":0_5" to="1o" fromLane="0" toLane="0" via=":0_10_0" dir="s" state="m"/>
    <connection from=":0_10" to="1o" fromLane="0" toLane="0" dir="s" state="M"/>
    <connection from=":0_6" to="2o" fromLane="0" toLane="0" dir="s" state="M"/>
    <connection from=":0_7" to="4o" fromLane="0" toLane="0" via=":0_11_0" dir="s" state="m"/>
    <connection from=":0_11" to="4o" fromLane="0" toLane="0" dir="s" state="M"/>
    <connection from=":1_0" to="1i" fromLane="0" toLane="1" dir="s" state="M"/>
    <connection from=":2_0" to="2i" fromLane="0" toLane="1" dir="s" state="M"/>
    <connection from=":3_0" to="3i" fromLane="0" toLane="1" dir="s" state="M"/>
    <connection from=":4_0" to="4i" fromLane="0" toLane="1" dir="s" state="M"/>

</net>
