<routes>
        <vType id="type1" accel="0.8" decel="4.5" sigma="0.5" length="5" minGap="2.5" maxSpeed="16.67"/>

        <route id="right" edges="1i 2o" />
        <route id="right_left" edges="1i 4o" />
        <route id="left" edges="2i 1o" />
        <route id="left_left" edges="2i 3o" />
        <route id="up" edges="3i 4o" />
        <route id="up_left" edges="3i 1o" />
        <route id="down" edges="4i 3o" />
        <route id="down_left" edges="4i 2o" />
        
        
<vehicle id="left_0" type="type1" route="left" depart="0" />
<vehicle id="right_left_1" type="type1" route="right_left" depart="0" />
<vehicle id="up_2" type="type1" route="up" depart="1" />
<vehicle id="left_3" type="type1" route="left" depart="4" />
<vehicle id="up_4" type="type1" route="up" depart="7" />
<vehicle id="left_5" type="type1" route="left" depart="10" />
<vehicle id="right_left_6" type="type1" route="right_left" depart="11" />
<vehicle id="right_left_7" type="type1" route="right_left" depart="14" />
<vehicle id="down_left_8" type="type1" route="down_left" depart="14" />
<vehicle id="up_9" type="type1" route="up" depart="15" />
<vehicle id="up_left_10" type="type1" route="up_left" depart="24" />
<vehicle id="left_left_11" type="type1" route="left_left" depart="32" />
<vehicle id="down_12" type="type1" route="down" depart="35" />
<vehicle id="left_13" type="type1" route="left" depart="36" />
<vehicle id="right_left_14" type="type1" route="right_left" depart="39" />
<vehicle id="down_left_15" type="type1" route="down_left" depart="41" />
<vehicle id="right_16" type="type1" route="right" depart="45" />
<vehicle id="up_left_17" type="type1" route="up_left" depart="45" />
<vehicle id="down_18" type="type1" route="down" depart="48" />
<vehicle id="up_left_19" type="type1" route="up_left" depart="50" />
<vehicle id="up_20" type="type1" route="up" depart="52" />
<vehicle id="up_21" type="type1" route="up" depart="53" />
<vehicle id="left_22" type="type1" route="left" depart="59" />
<vehicle id="left_left_23" type="type1" route="left_left" depart="60" />
<vehicle id="left_left_24" type="type1" route="left_left" depart="61" />
<vehicle id="right_25" type="type1" route="right" depart="62" />
<vehicle id="down_left_26" type="type1" route="down_left" depart="63" />
<vehicle id="right_27" type="type1" route="right" depart="65" />
<vehicle id="up_left_28" type="type1" route="up_left" depart="66" />
<vehicle id="left_left_29" type="type1" route="left_left" depart="72" />
<vehicle id="down_left_30" type="type1" route="down_left" depart="73" />
<vehicle id="left_left_31" type="type1" route="left_left" depart="78" />
<vehicle id="up_32" type="type1" route="up" depart="80" />
<vehicle id="down_33" type="type1" route="down" depart="81" />
<vehicle id="right_left_34" type="type1" route="right_left" depart="84" />
<vehicle id="up_left_35" type="type1" route="up_left" depart="86" />
<vehicle id="right_left_36" type="type1" route="right_left" depart="88" />
<vehicle id="right_37" type="type1" route="right" depart="90" />
<vehicle id="left_38" type="type1" route="left" depart="91" />
<vehicle id="left_39" type="type1" route="left" depart="101" />
<vehicle id="down_40" type="type1" route="down" depart="102" />
<vehicle id="up_41" type="type1" route="up" depart="105" />
<vehicle id="left_42" type="type1" route="left" depart="108" />
<vehicle id="down_43" type="type1" route="down" depart="109" />
<vehicle id="left_44" type="type1" route="left" depart="115" />
<vehicle id="right_left_45" type="type1" route="right_left" depart="118" />
<vehicle id="down_left_46" type="type1" route="down_left" depart="119" />
<vehicle id="up_47" type="type1" route="up" depart="120" />
<vehicle id="up_48" type="type1" route="up" depart="123" />
<vehicle id="left_left_49" type="type1" route="left_left" depart="125" />
<vehicle id="down_50" type="type1" route="down" depart="127" />
<vehicle id="left_51" type="type1" route="left" depart="128" />
<vehicle id="down_52" type="type1" route="down" depart="128" />
<vehicle id="up_left_53" type="type1" route="up_left" depart="128" />
<vehicle id="left_54" type="type1" route="left" depart="130" />
<vehicle id="up_left_55" type="type1" route="up_left" depart="130" />
<vehicle id="up_56" type="type1" route="up" depart="135" />
<vehicle id="left_left_57" type="type1" route="left_left" depart="139" />
<vehicle id="left_left_58" type="type1" route="left_left" depart="140" />
<vehicle id="up_59" type="type1" route="up" depart="141" />
<vehicle id="right_60" type="type1" route="right" depart="145" />
<vehicle id="down_left_61" type="type1" route="down_left" depart="145" />
<vehicle id="right_62" type="type1" route="right" depart="147" />
<vehicle id="left_63" type="type1" route="left" depart="147" />
<vehicle id="left_64" type="type1" route="left" depart="148" />
<vehicle id="left_65" type="type1" route="left" depart="159" />
<vehicle id="down_66" type="type1" route="down" depart="164" />
<vehicle id="left_left_67" type="type1" route="left_left" depart="170" />
<vehicle id="up_68" type="type1" route="up" depart="171" />
<vehicle id="up_left_69" type="type1" route="up_left" depart="172" />
<vehicle id="left_70" type="type1" route="left" depart="174" />
<vehicle id="right_71" type="type1" route="right" depart="175" />
<vehicle id="left_72" type="type1" route="left" depart="176" />
<vehicle id="up_73" type="type1" route="up" depart="176" />
<vehicle id="left_left_74" type="type1" route="left_left" depart="177" />
<vehicle id="down_75" type="type1" route="down" depart="180" />
<vehicle id="left_76" type="type1" route="left" depart="185" />
<vehicle id="left_77" type="type1" route="left" depart="187" />
<vehicle id="up_left_78" type="type1" route="up_left" depart="191" />
<vehicle id="right_left_79" type="type1" route="right_left" depart="193" />
<vehicle id="left_80" type="type1" route="left" depart="195" />
<vehicle id="right_81" type="type1" route="right" depart="200" />
<vehicle id="left_82" type="type1" route="left" depart="200" />
<vehicle id="left_83" type="type1" route="left" depart="202" />
<vehicle id="left_84" type="type1" route="left" depart="206" />
<vehicle id="up_left_85" type="type1" route="up_left" depart="206" />
<vehicle id="up_left_86" type="type1" route="up_left" depart="208" />
<vehicle id="up_left_87" type="type1" route="up_left" depart="210" />
<vehicle id="left_88" type="type1" route="left" depart="214" />
<vehicle id="up_left_89" type="type1" route="up_left" depart="215" />
<vehicle id="down_90" type="type1" route="down" depart="216" />
<vehicle id="up_91" type="type1" route="up" depart="217" />
<vehicle id="down_92" type="type1" route="down" depart="224" />
<vehicle id="up_left_93" type="type1" route="up_left" depart="224" />
<vehicle id="right_left_94" type="type1" route="right_left" depart="228" />
<vehicle id="down_95" type="type1" route="down" depart="233" />
<vehicle id="up_left_96" type="type1" route="up_left" depart="236" />
<vehicle id="left_97" type="type1" route="left" depart="241" />
<vehicle id="up_98" type="type1" route="up" depart="241" />
<vehicle id="left_99" type="type1" route="left" depart="244" />
<vehicle id="down_100" type="type1" route="down" depart="244" />
<vehicle id="down_101" type="type1" route="down" depart="246" />
<vehicle id="left_left_102" type="type1" route="left_left" depart="246" />
<vehicle id="down_103" type="type1" route="down" depart="255" />
<vehicle id="up_left_104" type="type1" route="up_left" depart="261" />
<vehicle id="right_105" type="type1" route="right" depart="263" />
<vehicle id="right_106" type="type1" route="right" depart="264" />
<vehicle id="down_107" type="type1" route="down" depart="264" />
<vehicle id="down_left_108" type="type1" route="down_left" depart="264" />
<vehicle id="left_109" type="type1" route="left" depart="268" />
<vehicle id="down_110" type="type1" route="down" depart="269" />
<vehicle id="up_left_111" type="type1" route="up_left" depart="269" />
<vehicle id="right_left_112" type="type1" route="right_left" depart="270" />
<vehicle id="left_113" type="type1" route="left" depart="273" />
<vehicle id="left_114" type="type1" route="left" depart="274" />
<vehicle id="left_left_115" type="type1" route="left_left" depart="276" />
<vehicle id="down_left_116" type="type1" route="down_left" depart="277" />
<vehicle id="left_117" type="type1" route="left" depart="287" />
<vehicle id="up_118" type="type1" route="up" depart="289" />
<vehicle id="down_119" type="type1" route="down" depart="290" />
<vehicle id="down_left_120" type="type1" route="down_left" depart="291" />
<vehicle id="up_left_121" type="type1" route="up_left" depart="295" />
<vehicle id="down_122" type="type1" route="down" depart="302" />
<vehicle id="left_left_123" type="type1" route="left_left" depart="303" />
<vehicle id="left_left_124" type="type1" route="left_left" depart="305" />
<vehicle id="left_125" type="type1" route="left" depart="310" />
<vehicle id="right_left_126" type="type1" route="right_left" depart="313" />
<vehicle id="up_127" type="type1" route="up" depart="314" />
<vehicle id="up_left_128" type="type1" route="up_left" depart="316" />
<vehicle id="up_129" type="type1" route="up" depart="319" />
<vehicle id="right_130" type="type1" route="right" depart="320" />
<vehicle id="up_131" type="type1" route="up" depart="322" />
<vehicle id="down_132" type="type1" route="down" depart="326" />
<vehicle id="left_left_133" type="type1" route="left_left" depart="328" />
<vehicle id="right_134" type="type1" route="right" depart="329" />
<vehicle id="left_135" type="type1" route="left" depart="329" />
<vehicle id="left_136" type="type1" route="left" depart="332" />
<vehicle id="up_left_137" type="type1" route="up_left" depart="334" />
<vehicle id="down_138" type="type1" route="down" depart="335" />
<vehicle id="left_139" type="type1" route="left" depart="337" />
<vehicle id="left_140" type="type1" route="left" depart="339" />
<vehicle id="left_141" type="type1" route="left" depart="340" />
<vehicle id="up_left_142" type="type1" route="up_left" depart="340" />
<vehicle id="right_left_143" type="type1" route="right_left" depart="342" />
<vehicle id="up_144" type="type1" route="up" depart="343" />
<vehicle id="up_145" type="type1" route="up" depart="344" />
<vehicle id="left_146" type="type1" route="left" depart="346" />
<vehicle id="up_left_147" type="type1" route="up_left" depart="349" />
<vehicle id="left_148" type="type1" route="left" depart="351" />
<vehicle id="left_149" type="type1" route="left" depart="352" />
<vehicle id="right_left_150" type="type1" route="right_left" depart="353" />
<vehicle id="down_151" type="type1" route="down" depart="355" />
<vehicle id="left_152" type="type1" route="left" depart="356" />
<vehicle id="up_left_153" type="type1" route="up_left" depart="356" />
<vehicle id="left_left_154" type="type1" route="left_left" depart="362" />
<vehicle id="right_left_155" type="type1" route="right_left" depart="364" />
<vehicle id="right_left_156" type="type1" route="right_left" depart="365" />
<vehicle id="up_left_157" type="type1" route="up_left" depart="369" />
<vehicle id="up_158" type="type1" route="up" depart="372" />
<vehicle id="down_left_159" type="type1" route="down_left" depart="372" />
<vehicle id="left_160" type="type1" route="left" depart="375" />
<vehicle id="up_161" type="type1" route="up" depart="376" />
<vehicle id="left_162" type="type1" route="left" depart="378" />
<vehicle id="up_163" type="type1" route="up" depart="379" />
<vehicle id="left_164" type="type1" route="left" depart="382" />
<vehicle id="up_left_165" type="type1" route="up_left" depart="383" />
<vehicle id="up_left_166" type="type1" route="up_left" depart="386" />
<vehicle id="left_167" type="type1" route="left" depart="390" />
<vehicle id="left_left_168" type="type1" route="left_left" depart="391" />
<vehicle id="down_169" type="type1" route="down" depart="395" />
<vehicle id="up_left_170" type="type1" route="up_left" depart="396" />
<vehicle id="right_left_171" type="type1" route="right_left" depart="399" />
<vehicle id="up_left_172" type="type1" route="up_left" depart="399" />
<vehicle id="up_173" type="type1" route="up" depart="400" />
<vehicle id="down_174" type="type1" route="down" depart="403" />
<vehicle id="right_175" type="type1" route="right" depart="406" />
<vehicle id="down_176" type="type1" route="down" depart="411" />
<vehicle id="left_177" type="type1" route="left" depart="413" />
<vehicle id="left_178" type="type1" route="left" depart="415" />
<vehicle id="left_left_179" type="type1" route="left_left" depart="419" />
<vehicle id="left_180" type="type1" route="left" depart="420" />
<vehicle id="left_left_181" type="type1" route="left_left" depart="420" />
<vehicle id="left_182" type="type1" route="left" depart="424" />
<vehicle id="down_left_183" type="type1" route="down_left" depart="424" />
<vehicle id="up_left_184" type="type1" route="up_left" depart="426" />
<vehicle id="up_185" type="type1" route="up" depart="430" />
<vehicle id="left_left_186" type="type1" route="left_left" depart="431" />
<vehicle id="up_187" type="type1" route="up" depart="435" />
<vehicle id="left_188" type="type1" route="left" depart="436" />
<vehicle id="left_left_189" type="type1" route="left_left" depart="438" />
<vehicle id="up_left_190" type="type1" route="up_left" depart="439" />
<vehicle id="left_191" type="type1" route="left" depart="445" />
<vehicle id="right_192" type="type1" route="right" depart="452" />
<vehicle id="right_left_193" type="type1" route="right_left" depart="453" />
<vehicle id="up_left_194" type="type1" route="up_left" depart="455" />
<vehicle id="left_195" type="type1" route="left" depart="461" />
<vehicle id="right_196" type="type1" route="right" depart="463" />
<vehicle id="up_197" type="type1" route="up" depart="465" />
<vehicle id="up_198" type="type1" route="up" depart="466" />
<vehicle id="down_left_199" type="type1" route="down_left" depart="469" />
<vehicle id="left_200" type="type1" route="left" depart="474" />
<vehicle id="left_201" type="type1" route="left" depart="477" />
<vehicle id="right_left_202" type="type1" route="right_left" depart="479" />
<vehicle id="left_203" type="type1" route="left" depart="482" />
<vehicle id="up_204" type="type1" route="up" depart="482" />
<vehicle id="left_left_205" type="type1" route="left_left" depart="482" />
<vehicle id="down_206" type="type1" route="down" depart="487" />
<vehicle id="left_207" type="type1" route="left" depart="493" />
<vehicle id="down_208" type="type1" route="down" depart="493" />
<vehicle id="down_left_209" type="type1" route="down_left" depart="494" />
<vehicle id="left_left_210" type="type1" route="left_left" depart="498" />
<vehicle id="down_211" type="type1" route="down" depart="500" />
<vehicle id="left_212" type="type1" route="left" depart="503" />
<vehicle id="up_left_213" type="type1" route="up_left" depart="507" />
<vehicle id="up_left_214" type="type1" route="up_left" depart="508" />
<vehicle id="down_left_215" type="type1" route="down_left" depart="510" />
<vehicle id="up_216" type="type1" route="up" depart="511" />
<vehicle id="left_left_217" type="type1" route="left_left" depart="511" />
<vehicle id="down_left_218" type="type1" route="down_left" depart="516" />
<vehicle id="right_219" type="type1" route="right" depart="518" />
<vehicle id="up_left_220" type="type1" route="up_left" depart="521" />
<vehicle id="right_221" type="type1" route="right" depart="525" />
<vehicle id="down_222" type="type1" route="down" depart="530" />
<vehicle id="right_left_223" type="type1" route="right_left" depart="531" />
<vehicle id="up_224" type="type1" route="up" depart="536" />
<vehicle id="up_225" type="type1" route="up" depart="537" />
<vehicle id="down_left_226" type="type1" route="down_left" depart="537" />
<vehicle id="left_227" type="type1" route="left" depart="538" />
<vehicle id="right_left_228" type="type1" route="right_left" depart="539" />
<vehicle id="down_left_229" type="type1" route="down_left" depart="542" />
<vehicle id="up_230" type="type1" route="up" depart="543" />
<vehicle id="up_left_231" type="type1" route="up_left" depart="543" />
<vehicle id="up_232" type="type1" route="up" depart="544" />
<vehicle id="up_left_233" type="type1" route="up_left" depart="547" />
<vehicle id="up_234" type="type1" route="up" depart="550" />
<vehicle id="left_235" type="type1" route="left" depart="552" />
<vehicle id="up_236" type="type1" route="up" depart="553" />
<vehicle id="up_237" type="type1" route="up" depart="555" />
<vehicle id="left_238" type="type1" route="left" depart="556" />
<vehicle id="left_239" type="type1" route="left" depart="561" />
<vehicle id="left_left_240" type="type1" route="left_left" depart="561" />
<vehicle id="left_241" type="type1" route="left" depart="566" />
<vehicle id="up_242" type="type1" route="up" depart="566" />
<vehicle id="up_243" type="type1" route="up" depart="567" />
<vehicle id="left_244" type="type1" route="left" depart="574" />
<vehicle id="left_245" type="type1" route="left" depart="575" />
<vehicle id="up_left_246" type="type1" route="up_left" depart="577" />
<vehicle id="down_247" type="type1" route="down" depart="579" />
<vehicle id="up_248" type="type1" route="up" depart="580" />
<vehicle id="up_left_249" type="type1" route="up_left" depart="581" />
<vehicle id="left_250" type="type1" route="left" depart="582" />
<vehicle id="left_251" type="type1" route="left" depart="584" />
<vehicle id="up_left_252" type="type1" route="up_left" depart="584" />
<vehicle id="down_253" type="type1" route="down" depart="587" />
<vehicle id="down_left_254" type="type1" route="down_left" depart="587" />
<vehicle id="right_255" type="type1" route="right" depart="589" />
<vehicle id="up_256" type="type1" route="up" depart="589" />
<vehicle id="down_257" type="type1" route="down" depart="590" />
<vehicle id="right_258" type="type1" route="right" depart="591" />
<vehicle id="down_left_259" type="type1" route="down_left" depart="592" />
<vehicle id="up_left_260" type="type1" route="up_left" depart="594" />
<vehicle id="right_left_261" type="type1" route="right_left" depart="603" />
<vehicle id="down_left_262" type="type1" route="down_left" depart="603" />
<vehicle id="left_left_263" type="type1" route="left_left" depart="605" />
<vehicle id="down_264" type="type1" route="down" depart="607" />
<vehicle id="down_265" type="type1" route="down" depart="608" />
<vehicle id="down_266" type="type1" route="down" depart="609" />
<vehicle id="left_267" type="type1" route="left" depart="616" />
<vehicle id="up_left_268" type="type1" route="up_left" depart="616" />
<vehicle id="left_269" type="type1" route="left" depart="618" />
<vehicle id="up_left_270" type="type1" route="up_left" depart="618" />
<vehicle id="up_left_271" type="type1" route="up_left" depart="620" />
<vehicle id="left_272" type="type1" route="left" depart="625" />
<vehicle id="down_273" type="type1" route="down" depart="625" />
<vehicle id="right_left_274" type="type1" route="right_left" depart="626" />
<vehicle id="up_275" type="type1" route="up" depart="627" />
<vehicle id="right_276" type="type1" route="right" depart="628" />
<vehicle id="right_left_277" type="type1" route="right_left" depart="631" />
<vehicle id="up_left_278" type="type1" route="up_left" depart="632" />
<vehicle id="right_left_279" type="type1" route="right_left" depart="634" />
<vehicle id="down_left_280" type="type1" route="down_left" depart="636" />
<vehicle id="up_281" type="type1" route="up" depart="639" />
<vehicle id="right_282" type="type1" route="right" depart="646" />
<vehicle id="right_left_283" type="type1" route="right_left" depart="652" />
<vehicle id="left_left_284" type="type1" route="left_left" depart="654" />
<vehicle id="right_left_285" type="type1" route="right_left" depart="658" />
<vehicle id="left_286" type="type1" route="left" depart="659" />
<vehicle id="up_left_287" type="type1" route="up_left" depart="665" />
<vehicle id="up_left_288" type="type1" route="up_left" depart="666" />
<vehicle id="up_289" type="type1" route="up" depart="668" />
<vehicle id="up_290" type="type1" route="up" depart="673" />
<vehicle id="left_291" type="type1" route="left" depart="674" />
<vehicle id="right_292" type="type1" route="right" depart="677" />
<vehicle id="up_left_293" type="type1" route="up_left" depart="677" />
<vehicle id="up_left_294" type="type1" route="up_left" depart="681" />
<vehicle id="up_left_295" type="type1" route="up_left" depart="683" />
<vehicle id="right_left_296" type="type1" route="right_left" depart="686" />
<vehicle id="up_left_297" type="type1" route="up_left" depart="688" />
<vehicle id="left_left_298" type="type1" route="left_left" depart="691" />
<vehicle id="right_299" type="type1" route="right" depart="692" />
<vehicle id="down_300" type="type1" route="down" depart="693" />
<vehicle id="up_left_301" type="type1" route="up_left" depart="693" />
<vehicle id="up_302" type="type1" route="up" depart="694" />
<vehicle id="up_303" type="type1" route="up" depart="698" />
<vehicle id="right_304" type="type1" route="right" depart="699" />
<vehicle id="down_305" type="type1" route="down" depart="699" />
<vehicle id="left_306" type="type1" route="left" depart="701" />
<vehicle id="right_307" type="type1" route="right" depart="702" />
<vehicle id="up_308" type="type1" route="up" depart="704" />
<vehicle id="down_309" type="type1" route="down" depart="705" />
<vehicle id="up_310" type="type1" route="up" depart="713" />
<vehicle id="left_left_311" type="type1" route="left_left" depart="713" />
<vehicle id="right_312" type="type1" route="right" depart="714" />
<vehicle id="right_313" type="type1" route="right" depart="715" />
<vehicle id="right_left_314" type="type1" route="right_left" depart="716" />
<vehicle id="left_315" type="type1" route="left" depart="718" />
<vehicle id="up_316" type="type1" route="up" depart="719" />
<vehicle id="up_left_317" type="type1" route="up_left" depart="724" />
<vehicle id="down_318" type="type1" route="down" depart="727" />
<vehicle id="up_left_319" type="type1" route="up_left" depart="729" />
<vehicle id="down_320" type="type1" route="down" depart="732" />
<vehicle id="up_left_321" type="type1" route="up_left" depart="733" />
<vehicle id="up_left_322" type="type1" route="up_left" depart="736" />
<vehicle id="left_left_323" type="type1" route="left_left" depart="737" />
<vehicle id="left_324" type="type1" route="left" depart="738" />
<vehicle id="left_325" type="type1" route="left" depart="740" />
<vehicle id="right_326" type="type1" route="right" depart="744" />
<vehicle id="down_left_327" type="type1" route="down_left" depart="744" />
<vehicle id="up_left_328" type="type1" route="up_left" depart="744" />
<vehicle id="down_329" type="type1" route="down" depart="748" />
<vehicle id="left_330" type="type1" route="left" depart="750" />
<vehicle id="left_left_331" type="type1" route="left_left" depart="751" />
<vehicle id="right_left_332" type="type1" route="right_left" depart="755" />
<vehicle id="up_left_333" type="type1" route="up_left" depart="756" />
<vehicle id="down_334" type="type1" route="down" depart="757" />
<vehicle id="left_335" type="type1" route="left" depart="758" />
<vehicle id="down_left_336" type="type1" route="down_left" depart="760" />
<vehicle id="down_337" type="type1" route="down" depart="764" />
<vehicle id="up_left_338" type="type1" route="up_left" depart="767" />
<vehicle id="down_339" type="type1" route="down" depart="771" />
<vehicle id="up_340" type="type1" route="up" depart="771" />
<vehicle id="up_left_341" type="type1" route="up_left" depart="773" />
<vehicle id="down_left_342" type="type1" route="down_left" depart="774" />
<vehicle id="down_left_343" type="type1" route="down_left" depart="777" />
<vehicle id="up_left_344" type="type1" route="up_left" depart="777" />
<vehicle id="up_345" type="type1" route="up" depart="778" />
<vehicle id="up_left_346" type="type1" route="up_left" depart="779" />
<vehicle id="down_347" type="type1" route="down" depart="780" />
<vehicle id="up_left_348" type="type1" route="up_left" depart="783" />
<vehicle id="right_349" type="type1" route="right" depart="787" />
<vehicle id="right_350" type="type1" route="right" depart="792" />
<vehicle id="down_351" type="type1" route="down" depart="793" />
<vehicle id="up_352" type="type1" route="up" depart="799" />
<vehicle id="left_353" type="type1" route="left" depart="802" />
<vehicle id="up_354" type="type1" route="up" depart="803" />
<vehicle id="left_left_355" type="type1" route="left_left" depart="805" />
<vehicle id="left_356" type="type1" route="left" depart="811" />
<vehicle id="left_357" type="type1" route="left" depart="815" />
<vehicle id="up_358" type="type1" route="up" depart="816" />
<vehicle id="down_359" type="type1" route="down" depart="822" />
<vehicle id="left_left_360" type="type1" route="left_left" depart="822" />
<vehicle id="up_361" type="type1" route="up" depart="823" />
<vehicle id="right_left_362" type="type1" route="right_left" depart="826" />
<vehicle id="down_363" type="type1" route="down" depart="828" />
<vehicle id="up_left_364" type="type1" route="up_left" depart="829" />
<vehicle id="down_365" type="type1" route="down" depart="834" />
<vehicle id="up_left_366" type="type1" route="up_left" depart="836" />
<vehicle id="up_left_367" type="type1" route="up_left" depart="837" />
<vehicle id="up_left_368" type="type1" route="up_left" depart="840" />
<vehicle id="right_369" type="type1" route="right" depart="843" />
<vehicle id="down_370" type="type1" route="down" depart="843" />
<vehicle id="up_left_371" type="type1" route="up_left" depart="844" />
<vehicle id="down_372" type="type1" route="down" depart="846" />
<vehicle id="up_373" type="type1" route="up" depart="846" />
<vehicle id="up_left_374" type="type1" route="up_left" depart="848" />
<vehicle id="up_left_375" type="type1" route="up_left" depart="849" />
<vehicle id="left_376" type="type1" route="left" depart="854" />
<vehicle id="up_left_377" type="type1" route="up_left" depart="854" />
<vehicle id="down_378" type="type1" route="down" depart="858" />
<vehicle id="right_379" type="type1" route="right" depart="863" />
<vehicle id="down_380" type="type1" route="down" depart="863" />
<vehicle id="left_381" type="type1" route="left" depart="864" />
<vehicle id="down_382" type="type1" route="down" depart="866" />
<vehicle id="down_383" type="type1" route="down" depart="868" />
<vehicle id="left_384" type="type1" route="left" depart="869" />
<vehicle id="down_left_385" type="type1" route="down_left" depart="869" />
<vehicle id="down_386" type="type1" route="down" depart="871" />
<vehicle id="up_left_387" type="type1" route="up_left" depart="874" />
<vehicle id="down_388" type="type1" route="down" depart="879" />
<vehicle id="up_389" type="type1" route="up" depart="880" />
<vehicle id="right_390" type="type1" route="right" depart="887" />
<vehicle id="left_391" type="type1" route="left" depart="888" />
<vehicle id="up_392" type="type1" route="up" depart="888" />
<vehicle id="right_left_393" type="type1" route="right_left" depart="890" />
<vehicle id="down_left_394" type="type1" route="down_left" depart="895" />
<vehicle id="up_395" type="type1" route="up" depart="896" />
<vehicle id="right_left_396" type="type1" route="right_left" depart="900" />
<vehicle id="up_left_397" type="type1" route="up_left" depart="900" />
<vehicle id="up_398" type="type1" route="up" depart="902" />
<vehicle id="down_left_399" type="type1" route="down_left" depart="903" />
<vehicle id="up_400" type="type1" route="up" depart="904" />
<vehicle id="up_left_401" type="type1" route="up_left" depart="907" />
<vehicle id="down_left_402" type="type1" route="down_left" depart="911" />
<vehicle id="down_403" type="type1" route="down" depart="912" />
<vehicle id="up_left_404" type="type1" route="up_left" depart="915" />
<vehicle id="right_405" type="type1" route="right" depart="916" />
<vehicle id="up_406" type="type1" route="up" depart="916" />
<vehicle id="left_407" type="type1" route="left" depart="917" />
<vehicle id="up_408" type="type1" route="up" depart="918" />
<vehicle id="up_409" type="type1" route="up" depart="921" />
<vehicle id="up_left_410" type="type1" route="up_left" depart="922" />
<vehicle id="down_411" type="type1" route="down" depart="923" />
<vehicle id="right_412" type="type1" route="right" depart="926" />
<vehicle id="down_413" type="type1" route="down" depart="926" />
<vehicle id="up_left_414" type="type1" route="up_left" depart="927" />
<vehicle id="right_415" type="type1" route="right" depart="928" />
<vehicle id="up_left_416" type="type1" route="up_left" depart="928" />
<vehicle id="up_left_417" type="type1" route="up_left" depart="929" />
<vehicle id="down_418" type="type1" route="down" depart="930" />
<vehicle id="left_419" type="type1" route="left" depart="932" />
<vehicle id="up_420" type="type1" route="up" depart="933" />
<vehicle id="left_421" type="type1" route="left" depart="934" />
<vehicle id="up_422" type="type1" route="up" depart="935" />
<vehicle id="up_423" type="type1" route="up" depart="937" />
<vehicle id="up_left_424" type="type1" route="up_left" depart="938" />
<vehicle id="up_left_425" type="type1" route="up_left" depart="940" />
<vehicle id="up_left_426" type="type1" route="up_left" depart="941" />
<vehicle id="left_left_427" type="type1" route="left_left" depart="943" />
<vehicle id="down_left_428" type="type1" route="down_left" depart="947" />
<vehicle id="right_429" type="type1" route="right" depart="949" />
<vehicle id="down_left_430" type="type1" route="down_left" depart="951" />
<vehicle id="up_left_431" type="type1" route="up_left" depart="952" />
<vehicle id="left_432" type="type1" route="left" depart="954" />
<vehicle id="up_left_433" type="type1" route="up_left" depart="955" />
<vehicle id="left_434" type="type1" route="left" depart="956" />