<routes>
        <vType id="type1" accel="0.8" decel="4.5" sigma="0.5" length="5" minGap="2.5" maxSpeed="16.67"/>

        <route id="right" edges="1i 2o" />
        <route id="left" edges="2i 1o" />
        <route id="left_left" edges="2i 3o" />
        <route id="up_left" edges="3i 1o" />
        
        
<vehicle id="left_0" type="type1" route="left" depart="0" />
<vehicle id="left_left_1" type="type1" route="left_left" depart="0" />
<vehicle id="left_2" type="type1" route="left" depart="2" />
<vehicle id="left_left_3" type="type1" route="left_left" depart="2" />
<vehicle id="left_4" type="type1" route="left" depart="3" />
<vehicle id="left_5" type="type1" route="left" depart="4" />
<vehicle id="left_6" type="type1" route="left" depart="8" />
<vehicle id="left_7" type="type1" route="left" depart="10" />
<vehicle id="left_left_8" type="type1" route="left_left" depart="10" />
<vehicle id="left_9" type="type1" route="left" depart="11" />
<vehicle id="left_10" type="type1" route="left" depart="12" />
<vehicle id="left_11" type="type1" route="left" depart="13" />
<vehicle id="left_12" type="type1" route="left" depart="14" />
<vehicle id="left_13" type="type1" route="left" depart="17" />
<vehicle id="left_14" type="type1" route="left" depart="20" />
<vehicle id="left_15" type="type1" route="left" depart="21" />
<vehicle id="left_16" type="type1" route="left" depart="22" />
<vehicle id="left_left_17" type="type1" route="left_left" depart="22" />
<vehicle id="left_18" type="type1" route="left" depart="25" />
<vehicle id="left_19" type="type1" route="left" depart="26" />
<vehicle id="left_20" type="type1" route="left" depart="27" />
<vehicle id="left_21" type="type1" route="left" depart="28" />
<vehicle id="left_22" type="type1" route="left" depart="29" />
<vehicle id="left_23" type="type1" route="left" depart="31" />
<vehicle id="up_left_24" type="type1" route="up_left" depart="31" />
<vehicle id="left_25" type="type1" route="left" depart="34" />
<vehicle id="left_26" type="type1" route="left" depart="35" />
<vehicle id="left_27" type="type1" route="left" depart="36" />
<vehicle id="left_28" type="type1" route="left" depart="37" />
<vehicle id="left_29" type="type1" route="left" depart="38" />
<vehicle id="left_30" type="type1" route="left" depart="39" />
<vehicle id="left_31" type="type1" route="left" depart="40" />
<vehicle id="left_32" type="type1" route="left" depart="42" />
<vehicle id="left_33" type="type1" route="left" depart="43" />
<vehicle id="left_34" type="type1" route="left" depart="44" />
<vehicle id="left_35" type="type1" route="left" depart="45" />
<vehicle id="left_36" type="type1" route="left" depart="46" />
<vehicle id="left_37" type="type1" route="left" depart="47" />
<vehicle id="left_38" type="type1" route="left" depart="48" />
<vehicle id="left_39" type="type1" route="left" depart="49" />
<vehicle id="left_left_40" type="type1" route="left_left" depart="49" />
<vehicle id="left_41" type="type1" route="left" depart="51" />
<vehicle id="left_42" type="type1" route="left" depart="52" />
<vehicle id="left_43" type="type1" route="left" depart="53" />
<vehicle id="left_44" type="type1" route="left" depart="54" />
<vehicle id="left_45" type="type1" route="left" depart="56" />
<vehicle id="left_46" type="type1" route="left" depart="57" />
<vehicle id="left_47" type="type1" route="left" depart="58" />
<vehicle id="left_48" type="type1" route="left" depart="60" />
<vehicle id="left_49" type="type1" route="left" depart="61" />
<vehicle id="right_50" type="type1" route="right" depart="61" />
<vehicle id="left_51" type="type1" route="left" depart="62" />
<vehicle id="right_52" type="type1" route="right" depart="62" />
<vehicle id="left_53" type="type1" route="left" depart="63" />
<vehicle id="left_54" type="type1" route="left" depart="64" />
<vehicle id="right_55" type="type1" route="right" depart="65" />
<vehicle id="left_56" type="type1" route="left" depart="67" />
<vehicle id="left_left_57" type="type1" route="left_left" depart="67" />
<vehicle id="right_58" type="type1" route="right" depart="67" />
<vehicle id="left_59" type="type1" route="left" depart="68" />
<vehicle id="right_60" type="type1" route="right" depart="68" />
<vehicle id="left_61" type="type1" route="left" depart="69" />
<vehicle id="right_62" type="type1" route="right" depart="69" />
<vehicle id="left_63" type="type1" route="left" depart="70" />
<vehicle id="right_64" type="type1" route="right" depart="70" />
<vehicle id="left_65" type="type1" route="left" depart="71" />
<vehicle id="right_66" type="type1" route="right" depart="71" />
<vehicle id="left_67" type="type1" route="left" depart="72" />
<vehicle id="up_left_68" type="type1" route="up_left" depart="72" />
<vehicle id="right_69" type="type1" route="right" depart="72" />
<vehicle id="left_70" type="type1" route="left" depart="73" />
<vehicle id="right_71" type="type1" route="right" depart="73" />
<vehicle id="left_72" type="type1" route="left" depart="74" />
<vehicle id="left_left_73" type="type1" route="left_left" depart="74" />
<vehicle id="right_74" type="type1" route="right" depart="75" />
<vehicle id="left_75" type="type1" route="left" depart="76" />
<vehicle id="right_76" type="type1" route="right" depart="77" />
<vehicle id="left_77" type="type1" route="left" depart="78" />
<vehicle id="left_78" type="type1" route="left" depart="79" />
<vehicle id="left_79" type="type1" route="left" depart="81" />
<vehicle id="right_80" type="type1" route="right" depart="82" />
<vehicle id="left_81" type="type1" route="left" depart="84" />
<vehicle id="right_82" type="type1" route="right" depart="84" />
<vehicle id="up_left_83" type="type1" route="up_left" depart="85" />
<vehicle id="right_84" type="type1" route="right" depart="85" />
<vehicle id="left_85" type="type1" route="left" depart="86" />
<vehicle id="right_86" type="type1" route="right" depart="86" />
<vehicle id="left_87" type="type1" route="left" depart="87" />
<vehicle id="right_88" type="type1" route="right" depart="87" />
<vehicle id="right_89" type="type1" route="right" depart="88" />
<vehicle id="right_90" type="type1" route="right" depart="89" />
<vehicle id="left_91" type="type1" route="left" depart="90" />
<vehicle id="left_92" type="type1" route="left" depart="91" />
<vehicle id="left_93" type="type1" route="left" depart="92" />
<vehicle id="left_94" type="type1" route="left" depart="94" />
<vehicle id="left_95" type="type1" route="left" depart="95" />
<vehicle id="left_96" type="type1" route="left" depart="96" />
<vehicle id="left_97" type="type1" route="left" depart="98" />
<vehicle id="up_left_98" type="type1" route="up_left" depart="98" />
<vehicle id="left_99" type="type1" route="left" depart="99" />
<vehicle id="left_100" type="type1" route="left" depart="100" />
<vehicle id="left_101" type="type1" route="left" depart="102" />
<vehicle id="left_102" type="type1" route="left" depart="103" />
<vehicle id="left_103" type="type1" route="left" depart="104" />
<vehicle id="left_104" type="type1" route="left" depart="105" />
<vehicle id="left_105" type="type1" route="left" depart="106" />
<vehicle id="left_106" type="type1" route="left" depart="108" />
<vehicle id="left_107" type="type1" route="left" depart="109" />
<vehicle id="left_108" type="type1" route="left" depart="110" />
<vehicle id="left_109" type="type1" route="left" depart="113" />
<vehicle id="left_110" type="type1" route="left" depart="115" />
<vehicle id="left_111" type="type1" route="left" depart="116" />
<vehicle id="left_112" type="type1" route="left" depart="117" />
<vehicle id="left_left_113" type="type1" route="left_left" depart="117" />
<vehicle id="left_114" type="type1" route="left" depart="118" />
<vehicle id="left_115" type="type1" route="left" depart="119" />
<vehicle id="left_116" type="type1" route="left" depart="120" />
<vehicle id="left_left_117" type="type1" route="left_left" depart="120" />
<vehicle id="left_118" type="type1" route="left" depart="122" />
<vehicle id="left_119" type="type1" route="left" depart="123" />
<vehicle id="left_left_120" type="type1" route="left_left" depart="123" />
<vehicle id="left_121" type="type1" route="left" depart="124" />
<vehicle id="left_122" type="type1" route="left" depart="125" />
<vehicle id="left_left_123" type="type1" route="left_left" depart="125" />
<vehicle id="left_124" type="type1" route="left" depart="126" />
<vehicle id="left_125" type="type1" route="left" depart="127" />
<vehicle id="left_126" type="type1" route="left" depart="129" />
<vehicle id="up_left_127" type="type1" route="up_left" depart="129" />
<vehicle id="left_128" type="type1" route="left" depart="131" />
<vehicle id="left_129" type="type1" route="left" depart="132" />
<vehicle id="left_130" type="type1" route="left" depart="133" />
<vehicle id="left_131" type="type1" route="left" depart="134" />
<vehicle id="left_132" type="type1" route="left" depart="136" />
<vehicle id="left_133" type="type1" route="left" depart="137" />
<vehicle id="left_134" type="type1" route="left" depart="138" />
<vehicle id="left_135" type="type1" route="left" depart="139" />
<vehicle id="left_136" type="type1" route="left" depart="140" />
<vehicle id="left_137" type="type1" route="left" depart="142" />
<vehicle id="left_138" type="type1" route="left" depart="144" />
<vehicle id="left_139" type="type1" route="left" depart="145" />
<vehicle id="left_140" type="type1" route="left" depart="147" />
<vehicle id="left_left_141" type="type1" route="left_left" depart="147" />
<vehicle id="left_142" type="type1" route="left" depart="148" />
<vehicle id="left_143" type="type1" route="left" depart="149" />
<vehicle id="up_left_144" type="type1" route="up_left" depart="149" />
<vehicle id="left_145" type="type1" route="left" depart="150" />
<vehicle id="left_146" type="type1" route="left" depart="151" />
<vehicle id="right_147" type="type1" route="right" depart="151" />
<vehicle id="left_148" type="type1" route="left" depart="152" />
<vehicle id="right_149" type="type1" route="right" depart="152" />
<vehicle id="left_150" type="type1" route="left" depart="153" />
<vehicle id="right_151" type="type1" route="right" depart="153" />
<vehicle id="right_152" type="type1" route="right" depart="154" />
<vehicle id="left_153" type="type1" route="left" depart="155" />
<vehicle id="right_154" type="type1" route="right" depart="155" />
<vehicle id="left_155" type="type1" route="left" depart="156" />
<vehicle id="right_156" type="type1" route="right" depart="156" />
<vehicle id="left_157" type="type1" route="left" depart="157" />
<vehicle id="right_158" type="type1" route="right" depart="157" />
<vehicle id="left_159" type="type1" route="left" depart="158" />
<vehicle id="right_160" type="type1" route="right" depart="158" />
<vehicle id="left_161" type="type1" route="left" depart="159" />
<vehicle id="left_left_162" type="type1" route="left_left" depart="159" />
<vehicle id="right_163" type="type1" route="right" depart="159" />
<vehicle id="right_164" type="type1" route="right" depart="160" />
<vehicle id="right_165" type="type1" route="right" depart="161" />
<vehicle id="left_166" type="type1" route="left" depart="162" />
<vehicle id="right_167" type="type1" route="right" depart="162" />
<vehicle id="right_168" type="type1" route="right" depart="163" />
<vehicle id="left_169" type="type1" route="left" depart="164" />
<vehicle id="right_170" type="type1" route="right" depart="164" />
<vehicle id="left_171" type="type1" route="left" depart="165" />
<vehicle id="right_172" type="type1" route="right" depart="165" />
<vehicle id="right_173" type="type1" route="right" depart="166" />
<vehicle id="left_174" type="type1" route="left" depart="167" />
<vehicle id="right_175" type="type1" route="right" depart="168" />
<vehicle id="right_176" type="type1" route="right" depart="169" />
<vehicle id="left_177" type="type1" route="left" depart="170" />
<vehicle id="right_178" type="type1" route="right" depart="170" />
<vehicle id="left_179" type="type1" route="left" depart="171" />
<vehicle id="right_180" type="type1" route="right" depart="171" />
<vehicle id="left_181" type="type1" route="left" depart="172" />
<vehicle id="right_182" type="type1" route="right" depart="172" />
<vehicle id="left_183" type="type1" route="left" depart="173" />
<vehicle id="right_184" type="type1" route="right" depart="173" />
<vehicle id="left_185" type="type1" route="left" depart="174" />
<vehicle id="right_186" type="type1" route="right" depart="174" />
<vehicle id="left_187" type="type1" route="left" depart="175" />
<vehicle id="right_188" type="type1" route="right" depart="175" />
<vehicle id="left_189" type="type1" route="left" depart="176" />
<vehicle id="right_190" type="type1" route="right" depart="176" />
<vehicle id="left_191" type="type1" route="left" depart="177" />
<vehicle id="right_192" type="type1" route="right" depart="177" />
<vehicle id="right_193" type="type1" route="right" depart="178" />
<vehicle id="left_194" type="type1" route="left" depart="179" />
<vehicle id="right_195" type="type1" route="right" depart="179" />
<vehicle id="left_196" type="type1" route="left" depart="180" />
<vehicle id="left_197" type="type1" route="left" depart="182" />
<vehicle id="left_198" type="type1" route="left" depart="184" />
<vehicle id="left_199" type="type1" route="left" depart="185" />
<vehicle id="left_200" type="type1" route="left" depart="186" />
<vehicle id="left_201" type="type1" route="left" depart="187" />
<vehicle id="left_202" type="type1" route="left" depart="188" />
<vehicle id="left_203" type="type1" route="left" depart="189" />
<vehicle id="left_204" type="type1" route="left" depart="191" />
<vehicle id="left_205" type="type1" route="left" depart="192" />
<vehicle id="left_206" type="type1" route="left" depart="193" />
<vehicle id="left_207" type="type1" route="left" depart="196" />
<vehicle id="left_208" type="type1" route="left" depart="197" />
<vehicle id="left_209" type="type1" route="left" depart="199" />
<vehicle id="left_210" type="type1" route="left" depart="200" />
<vehicle id="left_211" type="type1" route="left" depart="201" />
<vehicle id="left_212" type="type1" route="left" depart="202" />
<vehicle id="left_213" type="type1" route="left" depart="203" />
<vehicle id="left_left_214" type="type1" route="left_left" depart="204" />
<vehicle id="up_left_215" type="type1" route="up_left" depart="206" />
<vehicle id="left_216" type="type1" route="left" depart="207" />
<vehicle id="left_217" type="type1" route="left" depart="208" />
<vehicle id="left_218" type="type1" route="left" depart="209" />
<vehicle id="left_219" type="type1" route="left" depart="210" />
<vehicle id="left_220" type="type1" route="left" depart="212" />
<vehicle id="left_221" type="type1" route="left" depart="213" />
<vehicle id="left_222" type="type1" route="left" depart="216" />
<vehicle id="left_223" type="type1" route="left" depart="217" />
<vehicle id="left_224" type="type1" route="left" depart="218" />
<vehicle id="left_225" type="type1" route="left" depart="219" />
<vehicle id="left_226" type="type1" route="left" depart="220" />
<vehicle id="up_left_227" type="type1" route="up_left" depart="220" />
<vehicle id="left_228" type="type1" route="left" depart="222" />
<vehicle id="left_229" type="type1" route="left" depart="223" />
<vehicle id="left_230" type="type1" route="left" depart="224" />
<vehicle id="left_231" type="type1" route="left" depart="226" />
<vehicle id="left_232" type="type1" route="left" depart="227" />
<vehicle id="left_233" type="type1" route="left" depart="228" />
<vehicle id="left_234" type="type1" route="left" depart="229" />
<vehicle id="left_235" type="type1" route="left" depart="230" />
<vehicle id="left_236" type="type1" route="left" depart="231" />
<vehicle id="left_237" type="type1" route="left" depart="232" />
<vehicle id="left_238" type="type1" route="left" depart="233" />
<vehicle id="left_239" type="type1" route="left" depart="234" />
<vehicle id="left_240" type="type1" route="left" depart="236" />
<vehicle id="left_241" type="type1" route="left" depart="239" />
<vehicle id="left_242" type="type1" route="left" depart="240" />
<vehicle id="left_243" type="type1" route="left" depart="241" />
<vehicle id="up_left_244" type="type1" route="up_left" depart="241" />
<vehicle id="left_245" type="type1" route="left" depart="242" />
<vehicle id="right_246" type="type1" route="right" depart="242" />
<vehicle id="right_247" type="type1" route="right" depart="243" />
<vehicle id="left_248" type="type1" route="left" depart="244" />
<vehicle id="right_249" type="type1" route="right" depart="244" />
<vehicle id="left_250" type="type1" route="left" depart="245" />
<vehicle id="right_251" type="type1" route="right" depart="245" />
<vehicle id="left_252" type="type1" route="left" depart="246" />
<vehicle id="right_253" type="type1" route="right" depart="246" />
<vehicle id="right_254" type="type1" route="right" depart="247" />
<vehicle id="left_255" type="type1" route="left" depart="248" />
<vehicle id="right_256" type="type1" route="right" depart="248" />
<vehicle id="left_257" type="type1" route="left" depart="249" />
<vehicle id="left_258" type="type1" route="left" depart="250" />
<vehicle id="left_259" type="type1" route="left" depart="251" />
<vehicle id="right_260" type="type1" route="right" depart="251" />
<vehicle id="right_261" type="type1" route="right" depart="252" />
<vehicle id="left_262" type="type1" route="left" depart="253" />
<vehicle id="left_left_263" type="type1" route="left_left" depart="253" />
<vehicle id="right_264" type="type1" route="right" depart="253" />
<vehicle id="left_265" type="type1" route="left" depart="254" />
<vehicle id="right_266" type="type1" route="right" depart="254" />
<vehicle id="left_267" type="type1" route="left" depart="255" />
<vehicle id="right_268" type="type1" route="right" depart="255" />
<vehicle id="left_269" type="type1" route="left" depart="256" />
<vehicle id="up_left_270" type="type1" route="up_left" depart="256" />
<vehicle id="left_271" type="type1" route="left" depart="257" />
<vehicle id="right_272" type="type1" route="right" depart="257" />
<vehicle id="left_273" type="type1" route="left" depart="258" />
<vehicle id="left_left_274" type="type1" route="left_left" depart="258" />
<vehicle id="up_left_275" type="type1" route="up_left" depart="258" />
<vehicle id="right_276" type="type1" route="right" depart="258" />
<vehicle id="left_277" type="type1" route="left" depart="259" />
<vehicle id="right_278" type="type1" route="right" depart="259" />
<vehicle id="right_279" type="type1" route="right" depart="260" />
<vehicle id="right_280" type="type1" route="right" depart="261" />
<vehicle id="left_left_281" type="type1" route="left_left" depart="262" />
<vehicle id="left_282" type="type1" route="left" depart="263" />
<vehicle id="right_283" type="type1" route="right" depart="263" />
<vehicle id="left_284" type="type1" route="left" depart="264" />
<vehicle id="right_285" type="type1" route="right" depart="264" />
<vehicle id="right_286" type="type1" route="right" depart="265" />
<vehicle id="left_287" type="type1" route="left" depart="266" />
<vehicle id="right_288" type="type1" route="right" depart="266" />
<vehicle id="left_289" type="type1" route="left" depart="267" />
<vehicle id="right_290" type="type1" route="right" depart="267" />
<vehicle id="left_291" type="type1" route="left" depart="268" />
<vehicle id="left_292" type="type1" route="left" depart="269" />
<vehicle id="right_293" type="type1" route="right" depart="269" />
<vehicle id="left_294" type="type1" route="left" depart="270" />
<vehicle id="left_295" type="type1" route="left" depart="271" />
<vehicle id="left_296" type="type1" route="left" depart="272" />
<vehicle id="left_297" type="type1" route="left" depart="275" />
<vehicle id="left_298" type="type1" route="left" depart="277" />
<vehicle id="left_299" type="type1" route="left" depart="278" />
<vehicle id="left_300" type="type1" route="left" depart="279" />
<vehicle id="left_301" type="type1" route="left" depart="281" />
<vehicle id="left_left_302" type="type1" route="left_left" depart="281" />
<vehicle id="left_303" type="type1" route="left" depart="282" />
<vehicle id="left_304" type="type1" route="left" depart="283" />
<vehicle id="left_left_305" type="type1" route="left_left" depart="283" />
<vehicle id="left_306" type="type1" route="left" depart="284" />
<vehicle id="left_307" type="type1" route="left" depart="286" />
<vehicle id="left_308" type="type1" route="left" depart="287" />
<vehicle id="left_left_309" type="type1" route="left_left" depart="287" />
<vehicle id="left_310" type="type1" route="left" depart="288" />
<vehicle id="left_311" type="type1" route="left" depart="289" />
<vehicle id="left_312" type="type1" route="left" depart="290" />
<vehicle id="left_313" type="type1" route="left" depart="291" />
<vehicle id="left_left_314" type="type1" route="left_left" depart="291" />
<vehicle id="left_315" type="type1" route="left" depart="292" />
<vehicle id="left_316" type="type1" route="left" depart="293" />
<vehicle id="up_left_317" type="type1" route="up_left" depart="293" />
<vehicle id="left_318" type="type1" route="left" depart="294" />
<vehicle id="left_319" type="type1" route="left" depart="296" />
<vehicle id="left_left_320" type="type1" route="left_left" depart="296" />
<vehicle id="left_321" type="type1" route="left" depart="297" />
<vehicle id="left_322" type="type1" route="left" depart="298" />
<vehicle id="left_left_323" type="type1" route="left_left" depart="298" />
<vehicle id="left_324" type="type1" route="left" depart="299" />
<vehicle id="left_325" type="type1" route="left" depart="301" />
<vehicle id="left_326" type="type1" route="left" depart="302" />
<vehicle id="left_327" type="type1" route="left" depart="305" />
<vehicle id="left_328" type="type1" route="left" depart="307" />
<vehicle id="left_329" type="type1" route="left" depart="308" />
<vehicle id="left_330" type="type1" route="left" depart="309" />
<vehicle id="left_331" type="type1" route="left" depart="310" />
<vehicle id="left_332" type="type1" route="left" depart="311" />
<vehicle id="left_333" type="type1" route="left" depart="313" />
<vehicle id="left_334" type="type1" route="left" depart="315" />
<vehicle id="left_left_335" type="type1" route="left_left" depart="315" />
<vehicle id="left_336" type="type1" route="left" depart="316" />
<vehicle id="left_337" type="type1" route="left" depart="317" />
<vehicle id="left_338" type="type1" route="left" depart="318" />
<vehicle id="left_339" type="type1" route="left" depart="319" />
<vehicle id="left_340" type="type1" route="left" depart="320" />
<vehicle id="left_341" type="type1" route="left" depart="321" />
<vehicle id="left_342" type="type1" route="left" depart="322" />
<vehicle id="left_343" type="type1" route="left" depart="326" />
<vehicle id="left_344" type="type1" route="left" depart="327" />
<vehicle id="left_345" type="type1" route="left" depart="329" />
<vehicle id="up_left_346" type="type1" route="up_left" depart="330" />
<vehicle id="right_347" type="type1" route="right" depart="331" />
<vehicle id="right_348" type="type1" route="right" depart="332" />
<vehicle id="left_349" type="type1" route="left" depart="333" />
<vehicle id="right_350" type="type1" route="right" depart="333" />
<vehicle id="left_351" type="type1" route="left" depart="334" />
<vehicle id="right_352" type="type1" route="right" depart="334" />
<vehicle id="left_353" type="type1" route="left" depart="335" />
<vehicle id="right_354" type="type1" route="right" depart="335" />
<vehicle id="left_355" type="type1" route="left" depart="337" />
<vehicle id="right_356" type="type1" route="right" depart="337" />
<vehicle id="right_357" type="type1" route="right" depart="338" />
<vehicle id="left_358" type="type1" route="left" depart="339" />
<vehicle id="right_359" type="type1" route="right" depart="339" />
<vehicle id="left_360" type="type1" route="left" depart="340" />
<vehicle id="right_361" type="type1" route="right" depart="340" />
<vehicle id="right_362" type="type1" route="right" depart="341" />
<vehicle id="left_363" type="type1" route="left" depart="342" />
<vehicle id="right_364" type="type1" route="right" depart="342" />
<vehicle id="left_365" type="type1" route="left" depart="343" />
<vehicle id="left_left_366" type="type1" route="left_left" depart="343" />
<vehicle id="right_367" type="type1" route="right" depart="343" />
<vehicle id="left_368" type="type1" route="left" depart="344" />
<vehicle id="right_369" type="type1" route="right" depart="344" />
<vehicle id="right_370" type="type1" route="right" depart="345" />
<vehicle id="left_371" type="type1" route="left" depart="346" />
<vehicle id="right_372" type="type1" route="right" depart="346" />
<vehicle id="left_373" type="type1" route="left" depart="347" />
<vehicle id="right_374" type="type1" route="right" depart="347" />
<vehicle id="left_375" type="type1" route="left" depart="348" />
<vehicle id="right_376" type="type1" route="right" depart="348" />
<vehicle id="left_377" type="type1" route="left" depart="349" />
<vehicle id="right_378" type="type1" route="right" depart="349" />
<vehicle id="left_379" type="type1" route="left" depart="350" />
<vehicle id="left_left_380" type="type1" route="left_left" depart="350" />
<vehicle id="right_381" type="type1" route="right" depart="350" />
<vehicle id="left_382" type="type1" route="left" depart="351" />
<vehicle id="right_383" type="type1" route="right" depart="351" />
<vehicle id="left_384" type="type1" route="left" depart="352" />
<vehicle id="right_385" type="type1" route="right" depart="352" />
<vehicle id="left_386" type="type1" route="left" depart="353" />
<vehicle id="right_387" type="type1" route="right" depart="353" />
<vehicle id="left_388" type="type1" route="left" depart="354" />
<vehicle id="right_389" type="type1" route="right" depart="354" />
<vehicle id="left_390" type="type1" route="left" depart="355" />
<vehicle id="right_391" type="type1" route="right" depart="355" />
<vehicle id="left_392" type="type1" route="left" depart="356" />
<vehicle id="left_393" type="type1" route="left" depart="357" />
<vehicle id="left_left_394" type="type1" route="left_left" depart="357" />
<vehicle id="right_395" type="type1" route="right" depart="357" />
<vehicle id="left_396" type="type1" route="left" depart="358" />
<vehicle id="right_397" type="type1" route="right" depart="358" />
<vehicle id="left_398" type="type1" route="left" depart="359" />
<vehicle id="left_left_399" type="type1" route="left_left" depart="359" />
<vehicle id="right_400" type="type1" route="right" depart="359" />
<vehicle id="left_401" type="type1" route="left" depart="360" />
<vehicle id="left_402" type="type1" route="left" depart="361" />
<vehicle id="left_403" type="type1" route="left" depart="362" />
<vehicle id="up_left_404" type="type1" route="up_left" depart="362" />
<vehicle id="left_405" type="type1" route="left" depart="363" />
<vehicle id="left_406" type="type1" route="left" depart="364" />
<vehicle id="left_407" type="type1" route="left" depart="365" />
<vehicle id="left_408" type="type1" route="left" depart="366" />
<vehicle id="left_409" type="type1" route="left" depart="368" />
<vehicle id="left_410" type="type1" route="left" depart="369" />
<vehicle id="left_411" type="type1" route="left" depart="370" />
<vehicle id="left_412" type="type1" route="left" depart="371" />
<vehicle id="left_413" type="type1" route="left" depart="372" />
<vehicle id="left_left_414" type="type1" route="left_left" depart="372" />
<vehicle id="left_415" type="type1" route="left" depart="374" />
<vehicle id="left_416" type="type1" route="left" depart="375" />
<vehicle id="left_left_417" type="type1" route="left_left" depart="376" />
<vehicle id="left_418" type="type1" route="left" depart="377" />
<vehicle id="left_419" type="type1" route="left" depart="378" />
<vehicle id="left_420" type="type1" route="left" depart="379" />
<vehicle id="left_421" type="type1" route="left" depart="380" />
<vehicle id="left_422" type="type1" route="left" depart="381" />
<vehicle id="left_423" type="type1" route="left" depart="382" />
<vehicle id="left_424" type="type1" route="left" depart="383" />
<vehicle id="left_425" type="type1" route="left" depart="386" />
<vehicle id="left_426" type="type1" route="left" depart="388" />
<vehicle id="left_427" type="type1" route="left" depart="389" />
<vehicle id="left_428" type="type1" route="left" depart="390" />
<vehicle id="left_429" type="type1" route="left" depart="393" />
<vehicle id="left_430" type="type1" route="left" depart="395" />
<vehicle id="left_431" type="type1" route="left" depart="396" />
<vehicle id="left_432" type="type1" route="left" depart="397" />
<vehicle id="left_433" type="type1" route="left" depart="398" />
<vehicle id="left_434" type="type1" route="left" depart="399" />
<vehicle id="left_435" type="type1" route="left" depart="401" />
<vehicle id="left_436" type="type1" route="left" depart="402" />
<vehicle id="left_left_437" type="type1" route="left_left" depart="402" />
<vehicle id="left_438" type="type1" route="left" depart="403" />
<vehicle id="left_439" type="type1" route="left" depart="404" />
<vehicle id="left_440" type="type1" route="left" depart="405" />
<vehicle id="left_441" type="type1" route="left" depart="406" />
<vehicle id="left_left_442" type="type1" route="left_left" depart="406" />
<vehicle id="left_443" type="type1" route="left" depart="407" />
<vehicle id="left_444" type="type1" route="left" depart="409" />
<vehicle id="left_445" type="type1" route="left" depart="410" />
<vehicle id="left_446" type="type1" route="left" depart="411" />
<vehicle id="left_447" type="type1" route="left" depart="412" />
<vehicle id="left_448" type="type1" route="left" depart="414" />
<vehicle id="left_left_449" type="type1" route="left_left" depart="414" />