<routes>
        <vType id="type1" accel="0.8" decel="4.5" sigma="0.5" length="5" minGap="2.5" maxSpeed="16.67"/>

        <route id="right" edges="1i 2o" />
        <route id="left" edges="2i 1o" />
        <route id="up" edges="3i 4o" />
        <route id="down" edges="4i 3o" />
        
        
<vehicle id="left_0" type="type1" route="left" depart="0" />
<vehicle id="up_1" type="type1" route="up" depart="1" />
<vehicle id="left_2" type="type1" route="left" depart="2" />
<vehicle id="right_3" type="type1" route="right" depart="3" />
<vehicle id="up_4" type="type1" route="up" depart="4" />
<vehicle id="down_5" type="type1" route="down" depart="6" />
<vehicle id="up_6" type="type1" route="up" depart="6" />
<vehicle id="left_7" type="type1" route="left" depart="10" />
<vehicle id="right_8" type="type1" route="right" depart="11" />
<vehicle id="up_9" type="type1" route="up" depart="16" />
<vehicle id="right_10" type="type1" route="right" depart="22" />
<vehicle id="left_11" type="type1" route="left" depart="22" />
<vehicle id="down_12" type="type1" route="down" depart="23" />
<vehicle id="right_13" type="type1" route="right" depart="25" />
<vehicle id="right_14" type="type1" route="right" depart="31" />
<vehicle id="down_15" type="type1" route="down" depart="31" />
<vehicle id="up_16" type="type1" route="up" depart="32" />
<vehicle id="down_17" type="type1" route="down" depart="33" />
<vehicle id="right_18" type="type1" route="right" depart="34" />
<vehicle id="right_19" type="type1" route="right" depart="40" />
<vehicle id="left_20" type="type1" route="left" depart="41" />
<vehicle id="right_21" type="type1" route="right" depart="44" />
<vehicle id="up_22" type="type1" route="up" depart="45" />
<vehicle id="left_23" type="type1" route="left" depart="49" />
<vehicle id="up_24" type="type1" route="up" depart="51" />
<vehicle id="right_25" type="type1" route="right" depart="56" />
<vehicle id="down_26" type="type1" route="down" depart="57" />
<vehicle id="right_27" type="type1" route="right" depart="63" />
<vehicle id="right_28" type="type1" route="right" depart="64" />
<vehicle id="left_29" type="type1" route="left" depart="67" />
<vehicle id="up_30" type="type1" route="up" depart="71" />
<vehicle id="down_31" type="type1" route="down" depart="72" />
<vehicle id="left_32" type="type1" route="left" depart="74" />
<vehicle id="down_33" type="type1" route="down" depart="74" />
<vehicle id="right_34" type="type1" route="right" depart="81" />
<vehicle id="down_35" type="type1" route="down" depart="85" />
<vehicle id="right_36" type="type1" route="right" depart="92" />
<vehicle id="up_37" type="type1" route="up" depart="93" />
<vehicle id="down_38" type="type1" route="down" depart="98" />
<vehicle id="down_39" type="type1" route="down" depart="101" />
<vehicle id="up_40" type="type1" route="up" depart="103" />
<vehicle id="up_41" type="type1" route="up" depart="104" />
<vehicle id="up_42" type="type1" route="up" depart="106" />
<vehicle id="up_43" type="type1" route="up" depart="108" />
<vehicle id="right_44" type="type1" route="right" depart="115" />
<vehicle id="left_45" type="type1" route="left" depart="117" />
<vehicle id="left_46" type="type1" route="left" depart="120" />
<vehicle id="left_47" type="type1" route="left" depart="123" />
<vehicle id="left_48" type="type1" route="left" depart="125" />
<vehicle id="right_49" type="type1" route="right" depart="126" />
<vehicle id="right_50" type="type1" route="right" depart="127" />
<vehicle id="left_51" type="type1" route="left" depart="129" />
<vehicle id="down_52" type="type1" route="down" depart="129" />
<vehicle id="right_53" type="type1" route="right" depart="132" />
<vehicle id="up_54" type="type1" route="up" depart="135" />
<vehicle id="left_55" type="type1" route="left" depart="137" />
<vehicle id="up_56" type="type1" route="up" depart="145" />
<vehicle id="left_57" type="type1" route="left" depart="147" />
<vehicle id="down_58" type="type1" route="down" depart="149" />
<vehicle id="right_59" type="type1" route="right" depart="150" />
<vehicle id="right_60" type="type1" route="right" depart="152" />
<vehicle id="left_61" type="type1" route="left" depart="159" />
<vehicle id="up_62" type="type1" route="up" depart="162" />
<vehicle id="right_63" type="type1" route="right" depart="164" />
<vehicle id="down_64" type="type1" route="down" depart="164" />
<vehicle id="up_65" type="type1" route="up" depart="170" />
<vehicle id="right_66" type="type1" route="right" depart="171" />
<vehicle id="up_67" type="type1" route="up" depart="175" />
<vehicle id="up_68" type="type1" route="up" depart="178" />
<vehicle id="right_69" type="type1" route="right" depart="179" />
<vehicle id="right_70" type="type1" route="right" depart="180" />
<vehicle id="right_71" type="type1" route="right" depart="182" />
<vehicle id="left_72" type="type1" route="left" depart="184" />
<vehicle id="up_73" type="type1" route="up" depart="193" />
<vehicle id="left_74" type="type1" route="left" depart="204" />
<vehicle id="down_75" type="type1" route="down" depart="206" />
<vehicle id="up_76" type="type1" route="up" depart="212" />
<vehicle id="right_77" type="type1" route="right" depart="213" />
<vehicle id="down_78" type="type1" route="down" depart="214" />
<vehicle id="right_79" type="type1" route="right" depart="216" />
<vehicle id="left_80" type="type1" route="left" depart="218" />
<vehicle id="down_81" type="type1" route="down" depart="220" />
<vehicle id="right_82" type="type1" route="right" depart="227" />
<vehicle id="left_83" type="type1" route="left" depart="232" />
<vehicle id="right_84" type="type1" route="right" depart="239" />
<vehicle id="down_85" type="type1" route="down" depart="241" />
<vehicle id="up_86" type="type1" route="up" depart="242" />
<vehicle id="right_87" type="type1" route="right" depart="245" />
<vehicle id="up_88" type="type1" route="up" depart="247" />
<vehicle id="up_89" type="type1" route="up" depart="248" />
<vehicle id="right_90" type="type1" route="right" depart="250" />
<vehicle id="left_91" type="type1" route="left" depart="253" />
<vehicle id="down_92" type="type1" route="down" depart="254" />
<vehicle id="down_93" type="type1" route="down" depart="256" />
<vehicle id="left_94" type="type1" route="left" depart="258" />
<vehicle id="down_95" type="type1" route="down" depart="258" />
<vehicle id="up_96" type="type1" route="up" depart="259" />
<vehicle id="left_97" type="type1" route="left" depart="262" />
<vehicle id="up_98" type="type1" route="up" depart="263" />
<vehicle id="left_99" type="type1" route="left" depart="265" />
<vehicle id="down_100" type="type1" route="down" depart="265" />
<vehicle id="right_101" type="type1" route="right" depart="266" />
<vehicle id="left_102" type="type1" route="left" depart="268" />
<vehicle id="left_103" type="type1" route="left" depart="271" />
<vehicle id="up_104" type="type1" route="up" depart="272" />
<vehicle id="left_105" type="type1" route="left" depart="273" />
<vehicle id="down_106" type="type1" route="down" depart="273" />
<vehicle id="left_107" type="type1" route="left" depart="281" />
<vehicle id="left_108" type="type1" route="left" depart="283" />
<vehicle id="up_109" type="type1" route="up" depart="284" />
<vehicle id="right_110" type="type1" route="right" depart="287" />
<vehicle id="left_111" type="type1" route="left" depart="287" />
<vehicle id="left_112" type="type1" route="left" depart="291" />
<vehicle id="right_113" type="type1" route="right" depart="292" />
<vehicle id="down_114" type="type1" route="down" depart="293" />
<vehicle id="down_115" type="type1" route="down" depart="295" />
<vehicle id="right_116" type="type1" route="right" depart="296" />
<vehicle id="left_117" type="type1" route="left" depart="296" />
<vehicle id="left_118" type="type1" route="left" depart="298" />
<vehicle id="up_119" type="type1" route="up" depart="299" />
<vehicle id="right_120" type="type1" route="right" depart="309" />
<vehicle id="right_121" type="type1" route="right" depart="310" />
<vehicle id="right_122" type="type1" route="right" depart="311" />
<vehicle id="down_123" type="type1" route="down" depart="311" />
<vehicle id="left_124" type="type1" route="left" depart="315" />
<vehicle id="right_125" type="type1" route="right" depart="320" />
<vehicle id="left_126" type="type1" route="left" depart="320" />
<vehicle id="right_127" type="type1" route="right" depart="329" />
<vehicle id="down_128" type="type1" route="down" depart="330" />
<vehicle id="left_129" type="type1" route="left" depart="343" />
<vehicle id="down_130" type="type1" route="down" depart="343" />
<vehicle id="up_131" type="type1" route="up" depart="344" />
<vehicle id="up_132" type="type1" route="up" depart="347" />
<vehicle id="right_133" type="type1" route="right" depart="348" />
<vehicle id="left_134" type="type1" route="left" depart="350" />
<vehicle id="right_135" type="type1" route="right" depart="352" />
<vehicle id="left_136" type="type1" route="left" depart="354" />
<vehicle id="up_137" type="type1" route="up" depart="354" />
<vehicle id="left_138" type="type1" route="left" depart="357" />
<vehicle id="left_139" type="type1" route="left" depart="359" />
<vehicle id="down_140" type="type1" route="down" depart="361" />
<vehicle id="down_141" type="type1" route="down" depart="362" />
<vehicle id="right_142" type="type1" route="right" depart="363" />
<vehicle id="left_143" type="type1" route="left" depart="369" />
<vehicle id="down_144" type="type1" route="down" depart="370" />
<vehicle id="left_145" type="type1" route="left" depart="372" />
<vehicle id="right_146" type="type1" route="right" depart="374" />
<vehicle id="left_147" type="type1" route="left" depart="376" />
<vehicle id="down_148" type="type1" route="down" depart="376" />
<vehicle id="down_149" type="type1" route="down" depart="384" />
<vehicle id="up_150" type="type1" route="up" depart="385" />
<vehicle id="right_151" type="type1" route="right" depart="389" />
<vehicle id="down_152" type="type1" route="down" depart="390" />
<vehicle id="left_153" type="type1" route="left" depart="392" />
<vehicle id="down_154" type="type1" route="down" depart="395" />
<vehicle id="right_155" type="type1" route="right" depart="402" />
<vehicle id="left_156" type="type1" route="left" depart="402" />
<vehicle id="right_157" type="type1" route="right" depart="406" />
<vehicle id="left_158" type="type1" route="left" depart="406" />
<vehicle id="down_159" type="type1" route="down" depart="410" />
<vehicle id="left_160" type="type1" route="left" depart="414" />
<vehicle id="up_161" type="type1" route="up" depart="415" />
<vehicle id="up_162" type="type1" route="up" depart="419" />
<vehicle id="up_163" type="type1" route="up" depart="423" />
<vehicle id="left_164" type="type1" route="left" depart="430" />
<vehicle id="up_165" type="type1" route="up" depart="433" />
<vehicle id="down_166" type="type1" route="down" depart="434" />
<vehicle id="up_167" type="type1" route="up" depart="436" />
<vehicle id="down_168" type="type1" route="down" depart="450" />
<vehicle id="up_169" type="type1" route="up" depart="451" />
<vehicle id="up_170" type="type1" route="up" depart="454" />
<vehicle id="right_171" type="type1" route="right" depart="459" />
<vehicle id="down_172" type="type1" route="down" depart="465" />
<vehicle id="down_173" type="type1" route="down" depart="468" />
<vehicle id="left_174" type="type1" route="left" depart="469" />
<vehicle id="up_175" type="type1" route="up" depart="475" />
<vehicle id="down_176" type="type1" route="down" depart="476" />
<vehicle id="right_177" type="type1" route="right" depart="477" />
<vehicle id="down_178" type="type1" route="down" depart="479" />
<vehicle id="right_179" type="type1" route="right" depart="481" />
<vehicle id="right_180" type="type1" route="right" depart="483" />
<vehicle id="down_181" type="type1" route="down" depart="483" />
<vehicle id="left_182" type="type1" route="left" depart="484" />
<vehicle id="up_183" type="type1" route="up" depart="484" />
<vehicle id="left_184" type="type1" route="left" depart="490" />
<vehicle id="down_185" type="type1" route="down" depart="490" />
<vehicle id="down_186" type="type1" route="down" depart="494" />
<vehicle id="left_187" type="type1" route="left" depart="495" />
<vehicle id="right_188" type="type1" route="right" depart="496" />
<vehicle id="down_189" type="type1" route="down" depart="497" />
<vehicle id="right_190" type="type1" route="right" depart="501" />
<vehicle id="up_191" type="type1" route="up" depart="508" />
<vehicle id="down_192" type="type1" route="down" depart="512" />
<vehicle id="right_193" type="type1" route="right" depart="517" />
<vehicle id="down_194" type="type1" route="down" depart="525" />
<vehicle id="up_195" type="type1" route="up" depart="525" />
<vehicle id="right_196" type="type1" route="right" depart="528" />
<vehicle id="right_197" type="type1" route="right" depart="530" />
<vehicle id="down_198" type="type1" route="down" depart="530" />
<vehicle id="down_199" type="type1" route="down" depart="531" />
<vehicle id="right_200" type="type1" route="right" depart="533" />
<vehicle id="left_201" type="type1" route="left" depart="537" />
<vehicle id="right_202" type="type1" route="right" depart="538" />
<vehicle id="left_203" type="type1" route="left" depart="538" />
<vehicle id="right_204" type="type1" route="right" depart="540" />
<vehicle id="down_205" type="type1" route="down" depart="540" />
<vehicle id="up_206" type="type1" route="up" depart="541" />
<vehicle id="right_207" type="type1" route="right" depart="542" />
<vehicle id="right_208" type="type1" route="right" depart="543" />
<vehicle id="right_209" type="type1" route="right" depart="545" />
<vehicle id="left_210" type="type1" route="left" depart="548" />
<vehicle id="left_211" type="type1" route="left" depart="550" />
<vehicle id="down_212" type="type1" route="down" depart="552" />
<vehicle id="down_213" type="type1" route="down" depart="553" />
<vehicle id="left_214" type="type1" route="left" depart="555" />
<vehicle id="down_215" type="type1" route="down" depart="557" />
<vehicle id="right_216" type="type1" route="right" depart="558" />
<vehicle id="down_217" type="type1" route="down" depart="559" />
<vehicle id="right_218" type="type1" route="right" depart="562" />
<vehicle id="right_219" type="type1" route="right" depart="563" />
<vehicle id="left_220" type="type1" route="left" depart="576" />
<vehicle id="down_221" type="type1" route="down" depart="579" />
<vehicle id="up_222" type="type1" route="up" depart="580" />
<vehicle id="down_223" type="type1" route="down" depart="582" />
<vehicle id="down_224" type="type1" route="down" depart="585" />
<vehicle id="up_225" type="type1" route="up" depart="593" />
<vehicle id="right_226" type="type1" route="right" depart="596" />
<vehicle id="right_227" type="type1" route="right" depart="601" />
<vehicle id="right_228" type="type1" route="right" depart="606" />
<vehicle id="down_229" type="type1" route="down" depart="606" />
<vehicle id="right_230" type="type1" route="right" depart="609" />
<vehicle id="left_231" type="type1" route="left" depart="609" />
<vehicle id="left_232" type="type1" route="left" depart="613" />
<vehicle id="down_233" type="type1" route="down" depart="619" />
<vehicle id="left_234" type="type1" route="left" depart="622" />
<vehicle id="left_235" type="type1" route="left" depart="627" />
<vehicle id="right_236" type="type1" route="right" depart="629" />
<vehicle id="up_237" type="type1" route="up" depart="630" />
<vehicle id="right_238" type="type1" route="right" depart="634" />
<vehicle id="left_239" type="type1" route="left" depart="634" />
<vehicle id="up_240" type="type1" route="up" depart="635" />
<vehicle id="up_241" type="type1" route="up" depart="640" />
<vehicle id="right_242" type="type1" route="right" depart="642" />
<vehicle id="down_243" type="type1" route="down" depart="643" />
<vehicle id="up_244" type="type1" route="up" depart="646" />
<vehicle id="right_245" type="type1" route="right" depart="649" />
<vehicle id="left_246" type="type1" route="left" depart="651" />
<vehicle id="down_247" type="type1" route="down" depart="654" />
<vehicle id="left_248" type="type1" route="left" depart="659" />
<vehicle id="down_249" type="type1" route="down" depart="659" />
<vehicle id="right_250" type="type1" route="right" depart="660" />
<vehicle id="left_251" type="type1" route="left" depart="660" />
<vehicle id="right_252" type="type1" route="right" depart="662" />
<vehicle id="left_253" type="type1" route="left" depart="665" />
<vehicle id="left_254" type="type1" route="left" depart="666" />
<vehicle id="down_255" type="type1" route="down" depart="666" />
<vehicle id="up_256" type="type1" route="up" depart="671" />
<vehicle id="down_257" type="type1" route="down" depart="672" />
<vehicle id="left_258" type="type1" route="left" depart="673" />
<vehicle id="left_259" type="type1" route="left" depart="676" />
<vehicle id="left_260" type="type1" route="left" depart="680" />
<vehicle id="left_261" type="type1" route="left" depart="682" />
<vehicle id="up_262" type="type1" route="up" depart="683" />
<vehicle id="right_263" type="type1" route="right" depart="687" />
<vehicle id="up_264" type="type1" route="up" depart="688" />
<vehicle id="up_265" type="type1" route="up" depart="690" />
<vehicle id="down_266" type="type1" route="down" depart="691" />
<vehicle id="left_267" type="type1" route="left" depart="693" />
<vehicle id="down_268" type="type1" route="down" depart="693" />
<vehicle id="left_269" type="type1" route="left" depart="694" />
<vehicle id="left_270" type="type1" route="left" depart="697" />
<vehicle id="up_271" type="type1" route="up" depart="701" />
<vehicle id="down_272" type="type1" route="down" depart="702" />
<vehicle id="left_273" type="type1" route="left" depart="704" />
<vehicle id="left_274" type="type1" route="left" depart="706" />
<vehicle id="right_275" type="type1" route="right" depart="709" />
<vehicle id="left_276" type="type1" route="left" depart="709" />
<vehicle id="right_277" type="type1" route="right" depart="711" />
<vehicle id="down_278" type="type1" route="down" depart="712" />
<vehicle id="left_279" type="type1" route="left" depart="714" />
<vehicle id="up_280" type="type1" route="up" depart="715" />
<vehicle id="left_281" type="type1" route="left" depart="721" />
<vehicle id="right_282" type="type1" route="right" depart="724" />
<vehicle id="left_283" type="type1" route="left" depart="727" />
<vehicle id="right_284" type="type1" route="right" depart="730" />
<vehicle id="right_285" type="type1" route="right" depart="731" />
<vehicle id="right_286" type="type1" route="right" depart="733" />
<vehicle id="up_287" type="type1" route="up" depart="741" />
<vehicle id="right_288" type="type1" route="right" depart="745" />
<vehicle id="up_289" type="type1" route="up" depart="746" />
<vehicle id="down_290" type="type1" route="down" depart="747" />
<vehicle id="right_291" type="type1" route="right" depart="751" />
<vehicle id="left_292" type="type1" route="left" depart="752" />
<vehicle id="up_293" type="type1" route="up" depart="753" />
<vehicle id="up_294" type="type1" route="up" depart="754" />
<vehicle id="left_295" type="type1" route="left" depart="758" />
<vehicle id="up_296" type="type1" route="up" depart="760" />
<vehicle id="down_297" type="type1" route="down" depart="761" />
<vehicle id="right_298" type="type1" route="right" depart="763" />
<vehicle id="down_299" type="type1" route="down" depart="765" />
<vehicle id="left_300" type="type1" route="left" depart="766" />
<vehicle id="up_301" type="type1" route="up" depart="769" />
<vehicle id="up_302" type="type1" route="up" depart="775" />
<vehicle id="left_303" type="type1" route="left" depart="782" />
<vehicle id="down_304" type="type1" route="down" depart="783" />
<vehicle id="left_305" type="type1" route="left" depart="785" />
<vehicle id="up_306" type="type1" route="up" depart="786" />
<vehicle id="down_307" type="type1" route="down" depart="792" />
<vehicle id="up_308" type="type1" route="up" depart="795" />
<vehicle id="right_309" type="type1" route="right" depart="801" />
<vehicle id="up_310" type="type1" route="up" depart="801" />
<vehicle id="up_311" type="type1" route="up" depart="802" />
<vehicle id="down_312" type="type1" route="down" depart="808" />
<vehicle id="right_313" type="type1" route="right" depart="814" />
<vehicle id="up_314" type="type1" route="up" depart="817" />
<vehicle id="up_315" type="type1" route="up" depart="819" />
<vehicle id="right_316" type="type1" route="right" depart="823" />
<vehicle id="down_317" type="type1" route="down" depart="824" />
<vehicle id="left_318" type="type1" route="left" depart="828" />
<vehicle id="right_319" type="type1" route="right" depart="830" />
<vehicle id="down_320" type="type1" route="down" depart="831" />
<vehicle id="left_321" type="type1" route="left" depart="832" />
<vehicle id="left_322" type="type1" route="left" depart="841" />
<vehicle id="left_323" type="type1" route="left" depart="842" />
<vehicle id="left_324" type="type1" route="left" depart="843" />
<vehicle id="left_325" type="type1" route="left" depart="850" />
<vehicle id="down_326" type="type1" route="down" depart="851" />
<vehicle id="right_327" type="type1" route="right" depart="853" />
<vehicle id="left_328" type="type1" route="left" depart="855" />
<vehicle id="up_329" type="type1" route="up" depart="855" />
<vehicle id="right_330" type="type1" route="right" depart="857" />
<vehicle id="down_331" type="type1" route="down" depart="857" />
<vehicle id="down_332" type="type1" route="down" depart="859" />
<vehicle id="up_333" type="type1" route="up" depart="862" />
<vehicle id="left_334" type="type1" route="left" depart="865" />
<vehicle id="left_335" type="type1" route="left" depart="867" />
<vehicle id="down_336" type="type1" route="down" depart="870" />
<vehicle id="up_337" type="type1" route="up" depart="872" />
<vehicle id="left_338" type="type1" route="left" depart="874" />
<vehicle id="left_339" type="type1" route="left" depart="875" />
<vehicle id="left_340" type="type1" route="left" depart="879" />
<vehicle id="down_341" type="type1" route="down" depart="879" />
<vehicle id="up_342" type="type1" route="up" depart="881" />
<vehicle id="right_343" type="type1" route="right" depart="886" />
<vehicle id="left_344" type="type1" route="left" depart="892" />
<vehicle id="right_345" type="type1" route="right" depart="906" />
<vehicle id="right_346" type="type1" route="right" depart="909" />
<vehicle id="up_347" type="type1" route="up" depart="913" />
<vehicle id="down_348" type="type1" route="down" depart="921" />
<vehicle id="left_349" type="type1" route="left" depart="924" />
<vehicle id="left_350" type="type1" route="left" depart="925" />
<vehicle id="right_351" type="type1" route="right" depart="928" />
<vehicle id="up_352" type="type1" route="up" depart="932" />
<vehicle id="up_353" type="type1" route="up" depart="934" />
<vehicle id="right_354" type="type1" route="right" depart="935" />
<vehicle id="right_355" type="type1" route="right" depart="939" />
<vehicle id="left_356" type="type1" route="left" depart="939" />
<vehicle id="down_357" type="type1" route="down" depart="941" />
<vehicle id="down_358" type="type1" route="down" depart="943" />
<vehicle id="up_359" type="type1" route="up" depart="944" />
<vehicle id="left_360" type="type1" route="left" depart="950" />
<vehicle id="left_361" type="type1" route="left" depart="956" />
<vehicle id="down_362" type="type1" route="down" depart="956" />
<vehicle id="right_363" type="type1" route="right" depart="961" />
<vehicle id="left_364" type="type1" route="left" depart="966" />
<vehicle id="down_365" type="type1" route="down" depart="966" />
<vehicle id="up_366" type="type1" route="up" depart="966" />
<vehicle id="left_367" type="type1" route="left" depart="967" />
<vehicle id="right_368" type="type1" route="right" depart="976" />
<vehicle id="down_369" type="type1" route="down" depart="976" />
<vehicle id="right_370" type="type1" route="right" depart="978" />
<vehicle id="down_371" type="type1" route="down" depart="984" />
<vehicle id="left_372" type="type1" route="left" depart="988" />
<vehicle id="down_373" type="type1" route="down" depart="988" />
<vehicle id="down_374" type="type1" route="down" depart="989" />
<vehicle id="right_375" type="type1" route="right" depart="990" />
<vehicle id="down_376" type="type1" route="down" depart="991" />
<vehicle id="down_377" type="type1" route="down" depart="992" />
<vehicle id="down_378" type="type1" route="down" depart="998" />
<vehicle id="left_379" type="type1" route="left" depart="999" />
</routes>
