<?xml version="1.0" encoding="UTF-8"?>

<!-- generated on Fri May 29 10:22:32 2015 by SUMO netconvert Version 0.23.0
<?xml version="1.0" encoding="UTF-8"?>

<configuration xmlns:xsi="http://www.w3.org/2001/XMLSchema-instance" xsi:noNamespaceSchemaLocation="http://sumo.dlr.de/xsd/netconvertConfiguration.xsd">

    <input>
        <node-files value="cross.nod.xml"/>
        <edge-files value="cross.edg.xml"/>
        <connection-files value="cross.con.xml"/>
    </input>

    <output>
        <output-file value="gen/cross.net.xml"/>
    </output>

    <report>
        <verbose value="true"/>
    </report>

</configuration>
-->

<net version="0.13" xmlns:xsi="http://www.w3.org/2001/XMLSchema-instance" xsi:noNamespaceSchemaLocation="http://sumo.dlr.de/xsd/net_file.xsd">

    <location netOffset="100.00,100.00" convBoundary="0.00,0.00,200.00,200.00" origBoundary="-100.00,-100.00,100.00,100.00" projParameter="!"/>

    <edge id=":0_0" function="internal">
        <lane id=":0_0_0" index="0" speed="13.90" length="9.50" shape="98.35,104.75 98.35,95.25"/>
    </edge>
    <edge id=":0_1" function="internal">
        <lane id=":0_1_0" index="0" speed="13.90" length="9.50" shape="104.75,101.65 95.25,101.65"/>
    </edge>
    <edge id=":0_2" function="internal">
        <lane id=":0_2_0" index="0" speed="13.90" length="9.50" shape="101.65,95.25 101.65,104.75"/>
    </edge>
    <edge id=":0_3" function="internal">
        <lane id=":0_3_0" index="0" speed="13.90" length="9.50" shape="95.25,98.35 104.75,98.35"/>
    </edge>
    <edge id=":1_0" function="internal">
        <lane id=":1_0_0" index="0" speed="13.90" length="4.82" shape="0.00,101.65 -1.24,100.82 -1.65,100.00 -1.24,99.17 0.00,98.35"/>
    </edge>
    <edge id=":2_0" function="internal">
        <lane id=":2_0_0" index="0" speed="13.90" length="4.82" shape="200.00,98.35 201.24,99.18 201.65,100.00 201.24,100.83 200.00,101.65"/>
    </edge>
    <edge id=":3_0" function="internal">
        <lane id=":3_0_0" index="0" speed="13.90" length="4.82" shape="98.35,0.00 99.18,-1.24 100.00,-1.65 100.83,-1.24 101.65,0.00"/>
    </edge>
    <edge id=":4_0" function="internal">
        <lane id=":4_0_0" index="0" speed="13.90" length="4.82" shape="101.65,200.00 100.82,201.24 100.00,201.65 99.17,201.24 98.35,200.00"/>
    </edge>

    <edge id="1i" from="1" to="0" priority="-1">
        <lane id="1i_0" index="0" speed="13.90" length="95.25" shape="0.00,98.35 95.25,98.35"/>
    </edge>
    <edge id="1o" from="0" to="1" priority="-1">
        <lane id="1o_0" index="0" speed="13.90" length="95.25" shape="95.25,101.65 0.00,101.65"/>
    </edge>
    <edge id="2i" from="2" to="0" priority="-1">
        <lane id="2i_0" index="0" speed="13.90" length="95.25" shape="200.00,101.65 104.75,101.65"/>
    </edge>
    <edge id="2o" from="0" to="2" priority="-1">
        <lane id="2o_0" index="0" speed="13.90" length="95.25" shape="104.75,98.35 200.00,98.35"/>
    </edge>
    <edge id="3i" from="3" to="0" priority="-1">
        <lane id="3i_0" index="0" speed="13.90" length="95.25" shape="101.65,0.00 101.65,95.25"/>
    </edge>
    <edge id="3o" from="0" to="3" priority="-1">
        <lane id="3o_0" index="0" speed="13.90" length="95.25" shape="98.35,95.25 98.35,0.00"/>
    </edge>
    <edge id="4i" from="4" to="0" priority="-1">
        <lane id="4i_0" index="0" speed="13.90" length="95.25" shape="98.35,200.00 98.35,104.75"/>
    </edge>
    <edge id="4o" from="0" to="4" priority="-1">
        <lane id="4o_0" index="0" speed="13.90" length="95.25" shape="101.65,104.75 101.65,200.00"/>
    </edge>

    <tlLogic id="0" type="static" programID="0" offset="0">
        <phase duration="31" state="GrGr"/>
        <phase duration="4" state="yryr"/>
        <phase duration="31" state="rGrG"/>
        <phase duration="4" state="ryry"/>
    </tlLogic>

    <junction id="0" type="traffic_light" x="100.00" y="100.00" incLanes="4i_0 2i_0 3i_0 1i_0" intLanes=":0_0_0 :0_1_0 :0_2_0 :0_3_0" shape="96.75,104.75 103.25,104.75 104.75,103.25 104.75,96.75 103.25,95.25 96.75,95.25 95.25,96.75 95.25,103.25">
        <request index="0" response="0000" foes="1010" cont="0"/>
        <request index="1" response="0101" foes="0101" cont="0"/>
        <request index="2" response="0000" foes="1010" cont="0"/>
        <request index="3" response="0101" foes="0101" cont="0"/>
    </junction>
    <junction id="1" type="priority" x="0.00" y="100.00" incLanes="1o_0" intLanes=":1_0_0" shape="-0.00,99.95 -0.00,96.75 0.00,103.25 0.00,100.05">
        <request index="0" response="0" foes="0" cont="0"/>
    </junction>
    <junction id="2" type="priority" x="200.00" y="100.00" incLanes="2o_0" intLanes=":2_0_0" shape="200.00,100.05 200.00,103.25 200.00,96.75 200.00,99.95">
        <request index="0" response="0" foes="0" cont="0"/>
    </junction>
    <junction id="3" type="priority" x="100.00" y="0.00" incLanes="3o_0" intLanes=":3_0_0" shape="100.05,-0.00 103.25,-0.00 96.75,0.00 99.95,0.00">
        <request index="0" response="0" foes="0" cont="0"/>
    </junction>
    <junction id="4" type="priority" x="100.00" y="200.00" incLanes="4o_0" intLanes=":4_0_0" shape="99.95,200.00 96.75,200.00 103.25,200.00 100.05,200.00">
        <request index="0" response="0" foes="0" cont="0"/>
    </junction>

    <connection from="1i" to="2o" fromLane="0" toLane="0" via=":0_3_0" tl="0" linkIndex="3" dir="s" state="o"/>
    <connection from="1o" to="1i" fromLane="0" toLane="0" via=":1_0_0" dir="t" state="M"/>
    <connection from="2i" to="1o" fromLane="0" toLane="0" via=":0_1_0" tl="0" linkIndex="1" dir="s" state="o"/>
    <connection from="2o" to="2i" fromLane="0" toLane="0" via=":2_0_0" dir="t" state="M"/>
    <connection from="3i" to="4o" fromLane="0" toLane="0" via=":0_2_0" tl="0" linkIndex="2" dir="s" state="o"/>
    <connection from="3o" to="3i" fromLane="0" toLane="0" via=":3_0_0" dir="t" state="M"/>
    <connection from="4i" to="3o" fromLane="0" toLane="0" via=":0_0_0" tl="0" linkIndex="0" dir="s" state="o"/>
    <connection from="4o" to="4i" fromLane="0" toLane="0" via=":4_0_0" dir="t" state="M"/>

    <connection from=":0_0" to="3o" fromLane="0" toLane="0" dir="s" state="M"/>
    <connection from=":0_1" to="1o" fromLane="0" toLane="0" dir="s" state="M"/>
    <connection from=":0_2" to="4o" fromLane="0" toLane="0" dir="s" state="M"/>
    <connection from=":0_3" to="2o" fromLane="0" toLane="0" dir="s" state="M"/>
    <connection from=":1_0" to="1i" fromLane="0" toLane="0" dir="s" state="M"/>
    <connection from=":2_0" to="2i" fromLane="0" toLane="0" dir="s" state="M"/>
    <connection from=":3_0" to="3i" fromLane="0" toLane="0" dir="s" state="M"/>
    <connection from=":4_0" to="4i" fromLane="0" toLane="0" dir="s" state="M"/>

</net>
